317714313
     RDKit          2D

 32 36  0  0  1  0  0  0  0  0999 V2000
    6.4451    3.0520    0.0000 C   0  0  0  0  0  0  0  0  0  0  0  0
    5.7289    2.6385    0.0000 N   0  0  0  0  0  0  0  0  0  0  0  0
    5.7289    1.8115    0.0000 C   0  0  0  0  0  0  0  0  0  0  0  0
    5.0131    1.3974    0.0000 C   0  0  0  0  0  0  0  0  0  0  0  0
    5.0131    0.5691    0.0000 C   0  0  0  0  0  0  0  0  0  0  0  0
    4.2972    0.1550    0.0000 N   0  0  0  0  0  0  0  0  0  0  0  0
    3.5807    0.5679    0.0000 C   0  0  0  0  0  0  0  0  0  0  0  0
    3.5799    1.3949    0.0000 C   0  0  0  0  0  0  0  0  0  0  0  0
    2.8634    1.8077    0.0000 C   0  0  0  0  0  0  0  0  0  0  0  0
    2.1475    1.3936    0.0000 C   0  0  0  0  0  0  0  0  0  0  0  0
    2.1482    0.5666    0.0000 N   0  0  0  0  0  0  0  0  0  0  0  0
    1.4324    0.1525    0.0000 C   0  0  0  0  0  0  0  0  0  0  0  0
    0.7158    0.5654    0.0000 C   0  0  0  0  0  0  0  0  0  0  0  0
    0.0000    0.1513    0.0000 C   0  0  0  0  0  0  0  0  0  0  0  0
    0.0007   -0.6757    0.0000 C   0  0  0  0  0  0  0  0  0  0  0  0
    0.7173   -1.0886    0.0000 C   0  0  0  0  0  0  0  0  0  0  0  0
    1.4331   -0.6745    0.0000 N   0  0  0  0  0  0  0  0  0  0  0  0
    2.8648    0.1537    0.0000 C   0  0  0  0  0  0  0  0  0  0  0  0
    2.8655   -0.6733    0.0000 O   0  0  0  0  0  0  0  0  0  0  0  0
    5.7289    0.1550    0.0000 N   0  0  0  0  0  0  0  0  0  0  0  0
    6.4447    0.5691    0.0000 N   0  0  0  0  0  0  0  0  0  0  0  0
    7.2316    0.3147    0.0000 C   0  0  0  0  0  0  0  0  0  0  0  0
    7.7226    0.9832    0.0000 C   0  0  0  0  0  0  0  0  0  0  0  0
    7.2316    1.6518    0.0000 N   0  0  0  0  0  0  0  0  0  0  0  0
    6.4447    1.3974    0.0000 C   0  0  0  0  0  0  0  0  0  0  0  0
    7.4840   -0.4728    0.0000 C   0  0  0  0  0  0  0  0  0  0  0  0
    6.9282   -1.0852    0.0000 O   0  0  0  0  0  0  0  0  0  0  0  0
    8.2922   -0.6480    0.0000 N   0  0  0  0  0  0  0  0  0  0  0  0
    8.5446   -1.4355    0.0000 C   0  0  0  0  0  0  0  0  0  0  0  0
    9.1570   -1.9913    0.0000 C   0  0  0  0  0  0  0  0  0  0  0  0
    8.3695   -2.2438    0.0000 C   0  0  0  0  0  0  0  0  0  0  0  0
    8.1943   -3.0520    0.0000 F   0  0  0  0  0  0  0  0  0  0  0  0
  1  2  1  0
  2  3  1  0
  3 25  1  0
  3  4  2  0
  4  5  1  0
  5  6  1  0
  6  7  1  0
  7 18  1  0
  7  8  2  0
  8  9  1  0
  9 10  2  0
 10 11  1  0
 11 12  1  0
 12 17  1  0
 12 13  2  0
 13 14  1  0
 14 15  2  0
 15 16  1  0
 16 17  2  0
 11 18  1  0
 18 19  2  0
  5 20  2  0
 20 21  1  0
 21 25  1  0
 21 22  1  0
 22 23  2  0
 23 24  1  0
 24 25  2  0
 22 26  1  0
 26 27  2  0
 26 28  1  0
 29 28  1  6
 29 31  1  0
 29 30  1  0
 30 31  1  0
 31 32  1  6
M  END
>  <SMILES>  (1) 
CNc1cc(Nc2cccn(-c3ccccn3)c2=O)nn2c(C(=O)N[C@@H]3C[C@@H]3F)cnc12

>  <CollectionName>  (1) 
emolecules

>  <LOG PLASMA PROTEIN BINDING (RAT) (% unbound)>  (1) 
0.518513939878

>  <Internal ID>  (1) 
Mol1

>  <Source>  (1) 
Biogen

$$$$
324056965
     RDKit          2D

 30 32  0  0  0  0  0  0  0  0999 V2000
    1.4324    3.3105    0.0000 C   0  0  0  0  0  0  0  0  0  0  0  0
    2.1482    2.8964    0.0000 C   0  0  0  0  0  0  0  0  0  0  0  0
    2.1475    2.0694    0.0000 O   0  0  0  0  0  0  0  0  0  0  0  0
    2.8634    1.6552    0.0000 C   0  0  0  0  0  0  0  0  0  0  0  0
    3.5792    2.0694    0.0000 C   0  0  0  0  0  0  0  0  0  0  0  0
    4.2951    1.6552    0.0000 C   0  0  0  0  0  0  0  0  0  0  0  0
    5.0819    1.9096    0.0000 N   0  0  0  0  0  0  0  0  0  0  0  0
    5.5729    1.2411    0.0000 N   0  0  0  0  0  0  0  0  0  0  0  0
    6.3999    1.2411    0.0000 C   0  0  0  0  0  0  0  0  0  0  0  0
    6.8134    1.9573    0.0000 C   0  0  0  0  0  0  0  0  0  0  0  0
    7.6404    1.9573    0.0000 C   0  0  0  0  0  0  0  0  0  0  0  0
    7.6404    2.7843    0.0000 C   0  0  0  0  0  0  0  0  0  0  0  0
    8.4674    1.9573    0.0000 C   0  0  0  0  0  0  0  0  0  0  0  0
    7.6404    1.1303    0.0000 O   0  0  0  0  0  0  0  0  0  0  0  0
    5.0819    0.5726    0.0000 C   0  0  0  0  0  0  0  0  0  0  0  0
    4.2951    0.8270    0.0000 C   0  0  0  0  0  0  0  0  0  0  0  0
    3.5792    0.4129    0.0000 C   0  0  0  0  0  0  0  0  0  0  0  0
    2.8634    0.8270    0.0000 C   0  0  0  0  0  0  0  0  0  0  0  0
    2.1475    0.4129    0.0000 N   0  0  0  0  0  0  0  0  0  0  0  0
    2.1482   -0.4141    0.0000 C   0  0  0  0  0  0  0  0  0  0  0  0
    2.8648   -0.8270    0.0000 O   0  0  0  0  0  0  0  0  0  0  0  0
    1.4324   -0.8282    0.0000 C   0  0  0  0  0  0  0  0  0  0  0  0
    0.7158   -0.4154    0.0000 C   0  0  0  0  0  0  0  0  0  0  0  0
    0.0000   -0.8295    0.0000 C   0  0  0  0  0  0  0  0  0  0  0  0
    0.0007   -1.6565    0.0000 C   0  0  0  0  0  0  0  0  0  0  0  0
    0.7173   -2.0694    0.0000 C   0  0  0  0  0  0  0  0  0  0  0  0
    1.4331   -1.6552    0.0000 N   0  0  0  0  0  0  0  0  0  0  0  0
    0.7180   -2.8964    0.0000 C   0  0  0  0  0  0  0  0  0  0  0  0
    1.4346   -3.3092    0.0000 F   0  0  0  0  0  0  0  0  0  0  0  0
    0.0022   -3.3105    0.0000 F   0  0  0  0  0  0  0  0  0  0  0  0
  1  2  1  0
  2  3  1  0
  3  4  1  0
  4 18  1  0
  4  5  2  0
  5  6  1  0
  6 16  1  0
  6  7  2  0
  7  8  1  0
  8  9  1  0
  9 10  1  0
 10 11  1  0
 11 12  1  0
 11 13  1  0
 11 14  1  0
  8 15  1  0
 15 16  2  0
 16 17  1  0
 17 18  2  0
 18 19  1  0
 19 20  1  0
 20 21  2  0
 20 22  1  0
 22 27  1  0
 22 23  2  0
 23 24  1  0
 24 25  2  0
 25 26  1  0
 26 27  2  0
 26 28  1  0
 28 29  1  0
 28 30  1  0
M  END
>  <SMILES>  (2) 
CCOc1cc2nn(CCC(C)(C)O)cc2cc1NC(=O)c1cccc(C(F)F)n1

>  <CollectionName>  (2) 
emolecules

>  <LOG PLASMA PROTEIN BINDING (RAT) (% unbound)>  (2) 
0.268343913951

>  <Internal ID>  (2) 
Mol2

>  <Source>  (2) 
Biogen

$$$$
304005766
     RDKit          2D

 15 16  0  0  0  0  0  0  0  0999 V2000
   -0.8270    0.0000    0.0000 C   0  0  0  0  0  0  0  0  0  0  0  0
   -0.4135    0.7162    0.0000 N   0  0  0  0  0  0  0  0  0  0  0  0
    0.4135    0.7162    0.0000 C   0  0  0  0  0  0  0  0  0  0  0  0
    0.8270    1.4324    0.0000 C   0  0  0  0  0  0  0  0  0  0  0  0
    1.6540    1.4324    0.0000 C   0  0  0  0  0  0  0  0  0  0  0  0
    2.0675    0.7162    0.0000 C   0  0  0  0  0  0  0  0  0  0  0  0
    1.6540   -0.0000    0.0000 N   0  0  0  0  0  0  0  0  0  0  0  0
    0.8270   -0.0000    0.0000 C   0  0  0  0  0  0  0  0  0  0  0  0
   -0.8270    1.4324    0.0000 C   0  0  0  0  0  0  0  0  0  0  0  0
   -1.6540    1.4324    0.0000 N   0  0  0  0  0  0  0  0  0  0  0  0
   -2.0675    2.1486    0.0000 C   0  0  0  0  0  0  0  0  0  0  0  0
   -1.6540    2.8648    0.0000 C   0  0  0  0  0  0  0  0  0  0  0  0
   -2.0675    3.5810    0.0000 F   0  0  0  0  0  0  0  0  0  0  0  0
   -0.8270    2.8648    0.0000 C   0  0  0  0  0  0  0  0  0  0  0  0
   -0.4135    2.1486    0.0000 N   0  0  0  0  0  0  0  0  0  0  0  0
  1  2  1  0
  2  3  1  0
  3  8  1  0
  3  4  1  0
  4  5  1  0
  5  6  1  0
  6  7  1  0
  7  8  1  0
  2  9  1  0
  9 15  1  0
  9 10  2  0
 10 11  1  0
 11 12  2  0
 12 13  1  0
 12 14  1  0
 14 15  2  0
M  END
>  <SMILES>  (3) 
CN(c1ncc(F)cn1)C1CCCNC1

>  <CollectionName>  (3) 
emolecules

>  <LOG PLASMA PROTEIN BINDING (RAT) (% unbound)>  (3) 
2.0

>  <Internal ID>  (3) 
Mol3

>  <Source>  (3) 
Biogen

$$$$
194963090
     RDKit          2D

 27 29  0  0  0  0  0  0  0  0999 V2000
    7.3403   -1.0180    0.0000 C   0  0  0  0  0  0  0  0  0  0  0  0
    6.6241   -1.4315    0.0000 C   0  0  0  0  0  0  0  0  0  0  0  0
    5.9079   -1.8450    0.0000 C   0  0  0  0  0  0  0  0  0  0  0  0
    6.2106   -0.7153    0.0000 O   0  0  0  0  0  0  0  0  0  0  0  0
    5.3836   -0.7153    0.0000 C   0  0  0  0  0  0  0  0  0  0  0  0
    4.9695   -1.4311    0.0000 C   0  0  0  0  0  0  0  0  0  0  0  0
    4.1412   -1.4311    0.0000 C   0  0  0  0  0  0  0  0  0  0  0  0
    3.7271   -0.7153    0.0000 C   0  0  0  0  0  0  0  0  0  0  0  0
    4.1412    0.0005    0.0000 C   0  0  0  0  0  0  0  0  0  0  0  0
    4.9695    0.0005    0.0000 C   0  0  0  0  0  0  0  0  0  0  0  0
    2.8989   -0.7153    0.0000 C   0  0  0  0  0  0  0  0  0  0  0  0
    2.4847   -1.4311    0.0000 C   0  0  0  0  0  0  0  0  0  0  0  0
    1.6565   -1.4311    0.0000 N   0  0  0  0  0  0  0  0  0  0  0  0
    1.2424   -0.7153    0.0000 C   0  0  0  0  0  0  0  0  0  0  0  0
    0.4154   -0.7153    0.0000 N   0  0  0  0  0  0  0  0  0  0  0  0
    1.6565    0.0005    0.0000 C   0  0  0  0  0  0  0  0  0  0  0  0
    2.4847    0.0005    0.0000 C   0  0  0  0  0  0  0  0  0  0  0  0
    1.2424    0.7164    0.0000 C   0  0  0  0  0  0  0  0  0  0  0  0
    0.4154    0.7157    0.0000 C   0  0  0  0  0  0  0  0  0  0  0  0
    0.0012    1.4315    0.0000 C   0  0  0  0  0  0  0  0  0  0  0  0
    0.4141    2.1481    0.0000 C   0  0  0  0  0  0  0  0  0  0  0  0
    0.0000    2.8639    0.0000 Cl  0  0  0  0  0  0  0  0  0  0  0  0
    1.2411    2.1488    0.0000 C   0  0  0  0  0  0  0  0  0  0  0  0
    1.6552    1.4329    0.0000 C   0  0  0  0  0  0  0  0  0  0  0  0
    7.0376   -2.1477    0.0000 C   0  0  0  0  0  0  0  0  0  0  0  0
    6.6241   -2.8639    0.0000 O   0  0  0  0  0  0  0  0  0  0  0  0
    7.8646   -2.1477    0.0000 O   0  0  0  0  0  0  0  0  0  0  0  0
  1  2  1  0
  2  3  1  0
  2  4  1  0
  4  5  1  0
  5 10  2  0
  5  6  1  0
  6  7  2  0
  7  8  1  0
  8  9  2  0
  9 10  1  0
  8 11  1  0
 11 17  1  0
 11 12  2  0
 12 13  1  0
 13 14  2  0
 14 15  1  0
 14 16  1  0
 16 17  2  0
 16 18  1  0
 18 24  1  0
 18 19  2  0
 19 20  1  0
 20 21  2  0
 21 22  1  0
 21 23  1  0
 23 24  2  0
  2 25  1  0
 25 26  1  0
 25 27  2  0
M  END
>  <SMILES>  (4) 
CC(C)(Oc1ccc(-c2cnc(N)c(-c3ccc(Cl)cc3)c2)cc1)C(=O)O

>  <CollectionName>  (4) 
emolecules

>  <LOG PLASMA PROTEIN BINDING (RAT) (% unbound)>  (4) 
-1.40340290437

>  <Internal ID>  (4) 
Mol4

>  <Source>  (4) 
Biogen

$$$$
324059015
     RDKit          2D

 32 34  0  0  0  0  0  0  0  0999 V2000
    7.7494    3.2534    0.0000 C   0  0  0  0  0  0  0  0  0  0  0  0
    7.7494    2.4264    0.0000 C   0  0  0  0  0  0  0  0  0  0  0  0
    8.5764    2.4264    0.0000 C   0  0  0  0  0  0  0  0  0  0  0  0
    7.7494    1.5994    0.0000 O   0  0  0  0  0  0  0  0  0  0  0  0
    6.9224    2.4264    0.0000 C   0  0  0  0  0  0  0  0  0  0  0  0
    6.5089    1.7102    0.0000 C   0  0  0  0  0  0  0  0  0  0  0  0
    5.6819    1.7102    0.0000 N   0  0  0  0  0  0  0  0  0  0  0  0
    5.1909    1.0417    0.0000 C   0  0  0  0  0  0  0  0  0  0  0  0
    4.4041    1.2961    0.0000 C   0  0  0  0  0  0  0  0  0  0  0  0
    3.6882    0.8820    0.0000 C   0  0  0  0  0  0  0  0  0  0  0  0
    2.9724    1.2961    0.0000 C   0  0  0  0  0  0  0  0  0  0  0  0
    2.2565    0.8820    0.0000 N   0  0  0  0  0  0  0  0  0  0  0  0
    2.2572    0.0550    0.0000 C   0  0  0  0  0  0  0  0  0  0  0  0
    2.9738   -0.3579    0.0000 O   0  0  0  0  0  0  0  0  0  0  0  0
    1.5414   -0.3592    0.0000 C   0  0  0  0  0  0  0  0  0  0  0  0
    0.8248    0.0537    0.0000 C   0  0  0  0  0  0  0  0  0  0  0  0
    0.1090   -0.3604    0.0000 C   0  0  0  0  0  0  0  0  0  0  0  0
    0.1097   -1.1874    0.0000 C   0  0  0  0  0  0  0  0  0  0  0  0
    0.8263   -1.6003    0.0000 C   0  0  0  0  0  0  0  0  0  0  0  0
    1.5421   -1.1862    0.0000 N   0  0  0  0  0  0  0  0  0  0  0  0
    0.8270   -2.4273    0.0000 C   0  0  0  0  0  0  0  0  0  0  0  0
    1.6540   -2.4266    0.0000 F   0  0  0  0  0  0  0  0  0  0  0  0
    0.8277   -3.2543    0.0000 F   0  0  0  0  0  0  0  0  0  0  0  0
    0.0000   -2.4280    0.0000 F   0  0  0  0  0  0  0  0  0  0  0  0
    2.9724    2.1243    0.0000 C   0  0  0  0  0  0  0  0  0  0  0  0
    3.6882    2.5384    0.0000 C   0  0  0  0  0  0  0  0  0  0  0  0
    4.4041    2.1243    0.0000 C   0  0  0  0  0  0  0  0  0  0  0  0
    5.1909    2.3787    0.0000 N   0  0  0  0  0  0  0  0  0  0  0  0
    2.2565    2.5384    0.0000 C   0  0  0  0  0  0  0  0  0  0  0  0
    2.6706    3.2543    0.0000 C   0  0  0  0  0  0  0  0  0  0  0  0
    1.5407    2.9526    0.0000 C   0  0  0  0  0  0  0  0  0  0  0  0
    1.8424    1.8226    0.0000 O   0  0  0  0  0  0  0  0  0  0  0  0
  1  2  1  0
  2  3  1  0
  2  4  1  0
  2  5  1  0
  5  6  1  0
  6  7  1  0
  7 28  1  0
  7  8  1  0
  8  9  2  0
  9 27  1  0
  9 10  1  0
 10 11  2  0
 11 12  1  0
 12 13  1  0
 13 14  2  0
 13 15  1  0
 15 20  1  0
 15 16  2  0
 16 17  1  0
 17 18  2  0
 18 19  1  0
 19 20  2  0
 19 21  1  0
 21 22  1  0
 21 23  1  0
 21 24  1  0
 11 25  1  0
 25 26  2  0
 26 27  1  0
 27 28  2  0
 25 29  1  0
 29 30  1  0
 29 31  1  0
 29 32  1  0
M  END
>  <SMILES>  (5) 
CC(C)(O)CCn1cc2cc(NC(=O)c3cccc(C(F)(F)F)n3)c(C(C)(C)O)cc2n1

>  <CollectionName>  (5) 
emolecules

>  <LOG PLASMA PROTEIN BINDING (RAT) (% unbound)>  (5) 
1.09226436079

>  <Internal ID>  (5) 
Mol5

>  <Source>  (5) 
Biogen

$$$$
316230505
     RDKit          2D

 27 29  0  0  1  0  0  0  0  0999 V2000
    0.0000   -2.4822    0.0000 C   0  0  0  0  0  0  0  0  0  0  0  0
    0.8270   -2.4822    0.0000 C   0  0  0  0  0  0  0  0  0  0  0  0
    1.6540   -2.4822    0.0000 C   0  0  0  0  0  0  0  0  0  0  0  0
    2.4810   -2.4822    0.0000 C   0  0  0  0  0  0  0  0  0  0  0  0
    2.8945   -3.1985    0.0000 O   0  0  0  0  0  0  0  0  0  0  0  0
    2.8945   -1.7660    0.0000 N   0  0  0  0  0  0  0  0  0  0  0  0
    3.7215   -1.7660    0.0000 C   0  0  0  0  0  0  0  0  0  0  0  0
    4.4377   -2.1795    0.0000 C   0  0  0  0  0  0  0  0  0  0  0  0
    5.1539   -1.7660    0.0000 C   0  0  0  0  0  0  0  0  0  0  0  0
    5.1539   -0.9390    0.0000 C   0  0  0  0  0  0  0  0  0  0  0  0
    4.4377   -0.5255    0.0000 N   0  0  0  0  0  0  0  0  0  0  0  0
    3.7215   -0.9390    0.0000 C   0  0  0  0  0  0  0  0  0  0  0  0
    4.4377    0.3015    0.0000 C   0  0  0  0  0  0  0  0  0  0  0  0
    3.7219    0.7156    0.0000 C   0  0  0  0  0  0  0  0  0  0  0  0
    3.0060    0.3015    0.0000 F   0  0  0  0  0  0  0  0  0  0  0  0
    3.7219    1.5438    0.0000 C   0  0  0  0  0  0  0  0  0  0  0  0
    4.4377    1.9580    0.0000 C   0  0  0  0  0  0  0  0  0  0  0  0
    4.4377    2.7850    0.0000 C   0  0  0  0  0  0  0  0  0  0  0  0
    5.1539    3.1985    0.0000 N   0  0  0  0  0  0  0  0  0  0  0  0
    3.7215    3.1985    0.0000 O   0  0  0  0  0  0  0  0  0  0  0  0
    5.1535    1.5438    0.0000 C   0  0  0  0  0  0  0  0  0  0  0  0
    5.9404    1.7982    0.0000 N   0  0  0  0  0  0  0  0  0  0  0  0
    6.4314    1.1297    0.0000 C   0  0  0  0  0  0  0  0  0  0  0  0
    7.2584    1.1297    0.0000 C   0  0  0  0  0  0  0  0  0  0  0  0
    5.9404    0.4612    0.0000 C   0  0  0  0  0  0  0  0  0  0  0  0
    6.1928   -0.3263    0.0000 C   0  0  0  0  0  0  0  0  0  0  0  0
    5.1535    0.7156    0.0000 C   0  0  0  0  0  0  0  0  0  0  0  0
  1  2  1  0
  2  3  3  0
  3  4  1  0
  4  5  2  0
  4  6  1  0
  7  6  1  6
  7 12  1  0
  7  8  1  0
  8  9  1  0
  9 10  1  0
 10 11  1  0
 11 12  1  0
 11 13  1  0
 13 27  1  0
 13 14  2  0
 14 15  1  0
 14 16  1  0
 16 17  2  0
 17 18  1  0
 18 19  1  0
 18 20  2  0
 17 21  1  0
 21 27  2  0
 21 22  1  0
 22 23  1  0
 23 24  1  0
 23 25  2  0
 25 26  1  0
 25 27  1  0
M  END
>  <SMILES>  (6) 
CC#CC(=O)N[C@H]1CCCN(c2c(F)cc(C(N)=O)c3[nH]c(C)c(C)c23)C1

>  <CollectionName>  (6) 
emolecules

>  <LOG PLASMA PROTEIN BINDING (RAT) (% unbound)>  (6) 
-0.639532816484

>  <Internal ID>  (6) 
Mol6

>  <Source>  (6) 
Biogen

$$$$
299985775
     RDKit          2D

 19 20  0  0  0  0  0  0  0  0999 V2000
    4.3345    3.0948    0.0000 C   0  0  0  0  0  0  0  0  0  0  0  0
    4.3286    2.2678    0.0000 C   0  0  0  0  0  0  0  0  0  0  0  0
    5.0418    1.8492    0.0000 C   0  0  0  0  0  0  0  0  0  0  0  0
    3.6094    1.8594    0.0000 N   0  0  0  0  0  0  0  0  0  0  0  0
    3.6035    1.0324    0.0000 C   0  0  0  0  0  0  0  0  0  0  0  0
    2.8844    0.6241    0.0000 C   0  0  0  0  0  0  0  0  0  0  0  0
    2.1712    1.0427    0.0000 O   0  0  0  0  0  0  0  0  0  0  0  0
    2.8785   -0.2029    0.0000 C   0  0  0  0  0  0  0  0  0  0  0  0
    2.1594   -0.6113    0.0000 O   0  0  0  0  0  0  0  0  0  0  0  0
    2.1534   -1.4383    0.0000 C   0  0  0  0  0  0  0  0  0  0  0  0
    2.8693   -1.8524    0.0000 C   0  0  0  0  0  0  0  0  0  0  0  0
    2.8693   -2.6806    0.0000 C   0  0  0  0  0  0  0  0  0  0  0  0
    2.1534   -3.0948    0.0000 C   0  0  0  0  0  0  0  0  0  0  0  0
    1.4317   -2.6806    0.0000 C   0  0  0  0  0  0  0  0  0  0  0  0
    0.7158   -3.0948    0.0000 C   0  0  0  0  0  0  0  0  0  0  0  0
    0.0000   -2.6806    0.0000 C   0  0  0  0  0  0  0  0  0  0  0  0
    0.0000   -1.8524    0.0000 C   0  0  0  0  0  0  0  0  0  0  0  0
    0.7158   -1.4383    0.0000 C   0  0  0  0  0  0  0  0  0  0  0  0
    1.4317   -1.8524    0.0000 C   0  0  0  0  0  0  0  0  0  0  0  0
  1  2  1  0
  2  3  1  0
  2  4  1  0
  4  5  1  0
  5  6  1  0
  6  7  1  0
  6  8  1  0
  8  9  1  0
  9 10  1  0
 10 19  2  0
 10 11  1  0
 11 12  2  0
 12 13  1  0
 13 14  2  0
 14 19  1  0
 14 15  1  0
 15 16  2  0
 16 17  1  0
 17 18  2  0
 18 19  1  0
M  END
>  <SMILES>  (7) 
CC(C)NCC(O)COc1cccc2ccccc12

>  <CollectionName>  (7) 
emolecules

>  <LOG PLASMA PROTEIN BINDING (RAT) (% unbound)>  (7) 
1.34775921793

>  <Internal ID>  (7) 
Mol7

>  <Source>  (7) 
Biogen

$$$$
538570
     RDKit          2D

 33 35  0  0  0  0  0  0  0  0999 V2000
   10.0268    0.2621    0.0000 C   0  0  0  0  0  0  0  0  0  0  0  0
    9.3106   -0.1514    0.0000 O   0  0  0  0  0  0  0  0  0  0  0  0
    9.3106   -0.9784    0.0000 C   0  0  0  0  0  0  0  0  0  0  0  0
   10.0268   -1.3919    0.0000 C   0  0  0  0  0  0  0  0  0  0  0  0
   10.0268   -2.2189    0.0000 C   0  0  0  0  0  0  0  0  0  0  0  0
    9.3106   -2.6324    0.0000 C   0  0  0  0  0  0  0  0  0  0  0  0
    9.3106   -3.4594    0.0000 Cl  0  0  0  0  0  0  0  0  0  0  0  0
    8.5944   -2.2189    0.0000 C   0  0  0  0  0  0  0  0  0  0  0  0
    8.5944   -1.3919    0.0000 C   0  0  0  0  0  0  0  0  0  0  0  0
    7.8782   -0.9784    0.0000 C   0  0  0  0  0  0  0  0  0  0  0  0
    7.1620   -1.3919    0.0000 O   0  0  0  0  0  0  0  0  0  0  0  0
    7.8782   -0.1514    0.0000 N   0  0  0  0  0  0  0  0  0  0  0  0
    7.1620    0.2621    0.0000 C   0  0  0  0  0  0  0  0  0  0  0  0
    7.1620    1.0891    0.0000 C   0  0  0  0  0  0  0  0  0  0  0  0
    6.4458    1.5026    0.0000 C   0  0  0  0  0  0  0  0  0  0  0  0
    5.7296    1.0891    0.0000 C   0  0  0  0  0  0  0  0  0  0  0  0
    5.0134    1.5026    0.0000 C   0  0  0  0  0  0  0  0  0  0  0  0
    5.0134    2.3296    0.0000 C   0  0  0  0  0  0  0  0  0  0  0  0
    5.7296    2.7431    0.0000 C   0  0  0  0  0  0  0  0  0  0  0  0
    6.4458    2.3296    0.0000 C   0  0  0  0  0  0  0  0  0  0  0  0
    4.2972    2.7431    0.0000 S   0  0  0  0  0  0  0  0  0  0  0  0
    4.7107    3.4594    0.0000 O   0  0  0  0  0  0  0  0  0  0  0  0
    3.8837    2.0269    0.0000 O   0  0  0  0  0  0  0  0  0  0  0  0
    3.5810    3.1566    0.0000 N   0  0  0  0  0  0  0  0  0  0  0  0
    2.8648    2.7431    0.0000 C   0  0  0  0  0  0  0  0  0  0  0  0
    2.8648    1.9161    0.0000 O   0  0  0  0  0  0  0  0  0  0  0  0
    2.1486    3.1566    0.0000 N   0  0  0  0  0  0  0  0  0  0  0  0
    1.4324    2.7431    0.0000 C   0  0  0  0  0  0  0  0  0  0  0  0
    1.4324    1.9161    0.0000 C   0  0  0  0  0  0  0  0  0  0  0  0
    0.7162    1.5026    0.0000 C   0  0  0  0  0  0  0  0  0  0  0  0
    0.0000    1.9161    0.0000 C   0  0  0  0  0  0  0  0  0  0  0  0
    0.0000    2.7431    0.0000 C   0  0  0  0  0  0  0  0  0  0  0  0
    0.7162    3.1566    0.0000 C   0  0  0  0  0  0  0  0  0  0  0  0
  1  2  1  0
  2  3  1  0
  3  9  2  0
  3  4  1  0
  4  5  2  0
  5  6  1  0
  6  7  1  0
  6  8  2  0
  8  9  1  0
  9 10  1  0
 10 11  2  0
 10 12  1  0
 12 13  1  0
 13 14  1  0
 14 15  1  0
 15 20  1  0
 15 16  2  0
 16 17  1  0
 17 18  2  0
 18 19  1  0
 19 20  2  0
 18 21  1  0
 21 22  2  0
 21 23  2  0
 21 24  1  0
 24 25  1  0
 25 26  2  0
 25 27  1  0
 27 28  1  0
 28 33  1  0
 28 29  1  0
 29 30  1  0
 30 31  1  0
 31 32  1  0
 32 33  1  0
M  END
>  <SMILES>  (8) 
COc1ccc(Cl)cc1C(=O)NCCc1ccc(S(=O)(=O)NC(=O)NC2CCCCC2)cc1

>  <CollectionName>  (8) 
emolecules

>  <LOG PLASMA PROTEIN BINDING (RAT) (% unbound)>  (8) 
-0.943095148664

>  <Internal ID>  (8) 
Mol8

>  <Source>  (8) 
Biogen

$$$$
EN300-97039
     RDKit          2D

 33 37  0  0  1  0  0  0  0  0999 V2000
    5.4005    4.2566    0.0000 C   0  0  0  0  0  0  0  0  0  0  0  0
    4.5922    4.0814    0.0000 C   0  0  0  0  0  0  0  0  0  0  0  0
    4.3398    3.2939    0.0000 C   0  0  0  0  0  0  0  0  0  0  0  0
    4.8956    2.6815    0.0000 O   0  0  0  0  0  0  0  0  0  0  0  0
    3.5316    3.1187    0.0000 N   0  0  0  0  0  0  0  0  0  0  0  0
    2.9758    3.7311    0.0000 C   0  0  0  0  0  0  0  0  0  0  0  0
    2.1675    3.5559    0.0000 C   0  0  0  0  0  0  0  0  0  0  0  0
    1.9151    2.7684    0.0000 C   0  0  0  0  0  0  0  0  0  0  0  0
    2.4709    2.1560    0.0000 C   0  0  0  0  0  0  0  0  0  0  0  0
    2.2185    1.3685    0.0000 N   0  0  0  0  0  0  0  0  0  0  0  0
    2.7096    0.7000    0.0000 N   0  0  0  0  0  0  0  0  0  0  0  0
    2.2185    0.0314    0.0000 C   0  0  0  0  0  0  0  0  0  0  0  0
    2.4709   -0.7561    0.0000 C   0  0  0  0  0  0  0  0  0  0  0  0
    1.9151   -1.3685    0.0000 C   0  0  0  0  0  0  0  0  0  0  0  0
    2.1675   -2.1560    0.0000 C   0  0  0  0  0  0  0  0  0  0  0  0
    2.9758   -2.3312    0.0000 C   0  0  0  0  0  0  0  0  0  0  0  0
    3.2282   -3.1187    0.0000 O   0  0  0  0  0  0  0  0  0  0  0  0
    4.0364   -3.2939    0.0000 C   0  0  0  0  0  0  0  0  0  0  0  0
    4.5922   -2.6815    0.0000 C   0  0  0  0  0  0  0  0  0  0  0  0
    5.4005   -2.8567    0.0000 C   0  0  0  0  0  0  0  0  0  0  0  0
    5.6529   -3.6442    0.0000 C   0  0  0  0  0  0  0  0  0  0  0  0
    5.0971   -4.2566    0.0000 C   0  0  0  0  0  0  0  0  0  0  0  0
    4.2888   -4.0814    0.0000 C   0  0  0  0  0  0  0  0  0  0  0  0
    3.5316   -1.7188    0.0000 C   0  0  0  0  0  0  0  0  0  0  0  0
    3.2792   -0.9313    0.0000 C   0  0  0  0  0  0  0  0  0  0  0  0
    1.4317    0.2858    0.0000 C   0  0  0  0  0  0  0  0  0  0  0  0
    0.7158   -0.1283    0.0000 C   0  0  0  0  0  0  0  0  0  0  0  0
    0.7158   -0.9553    0.0000 N   0  0  0  0  0  0  0  0  0  0  0  0
    0.0000    0.2858    0.0000 N   0  0  0  0  0  0  0  0  0  0  0  0
    0.0000    1.1141    0.0000 C   0  0  0  0  0  0  0  0  0  0  0  0
    0.7158    1.5282    0.0000 N   0  0  0  0  0  0  0  0  0  0  0  0
    1.4317    1.1141    0.0000 C   0  0  0  0  0  0  0  0  0  0  0  0
    3.2792    2.3312    0.0000 C   0  0  0  0  0  0  0  0  0  0  0  0
  1  2  2  0
  2  3  1  0
  3  4  2  0
  3  5  1  0
  5 33  1  0
  5  6  1  0
  6  7  1  0
  7  8  1  0
  8  9  1  0
  9 10  1  6
 10 32  1  0
 10 11  1  0
 11 12  2  0
 12 13  1  0
 13 25  1  0
 13 14  2  0
 14 15  1  0
 15 16  2  0
 16 17  1  0
 17 18  1  0
 18 23  1  0
 18 19  2  0
 19 20  1  0
 20 21  2  0
 21 22  1  0
 22 23  2  0
 16 24  1  0
 24 25  2  0
 12 26  1  0
 26 32  2  0
 26 27  1  0
 27 28  1  0
 27 29  2  0
 29 30  1  0
 30 31  2  0
 31 32  1  0
  9 33  1  0
M  END
>  <SMILES>  (9) 
C=CC(=O)N1CCC[C@@H](n2nc(-c3ccc(Oc4ccccc4)cc3)c3c(N)ncnc32)C1

>  <CollectionName>  (9) 
enamineBB_pmc

>  <LOG PLASMA PROTEIN BINDING (RAT) (% unbound)>  (9) 
-0.358525889496

>  <Internal ID>  (9) 
Mol9

>  <Source>  (9) 
Biogen

$$$$
44811418
     RDKit          2D

 34 38  0  0  0  0  0  0  0  0999 V2000
    0.7151    4.3408    0.0000 C   0  0  0  0  0  0  0  0  0  0  0  0
    0.7158    3.5138    0.0000 C   0  0  0  0  0  0  0  0  0  0  0  0
    0.0000    3.0997    0.0000 C   0  0  0  0  0  0  0  0  0  0  0  0
    1.4324    3.1009    0.0000 N   0  0  0  0  0  0  0  0  0  0  0  0
    1.4331    2.2739    0.0000 C   0  0  0  0  0  0  0  0  0  0  0  0
    0.7173    1.8598    0.0000 O   0  0  0  0  0  0  0  0  0  0  0  0
    2.1497    1.8611    0.0000 C   0  0  0  0  0  0  0  0  0  0  0  0
    2.1504    1.0341    0.0000 O   0  0  0  0  0  0  0  0  0  0  0  0
    2.8670    0.6212    0.0000 C   0  0  0  0  0  0  0  0  0  0  0  0
    3.5828    1.0353    0.0000 C   0  0  0  0  0  0  0  0  0  0  0  0
    4.2994    0.6224    0.0000 C   0  0  0  0  0  0  0  0  0  0  0  0
    4.3001   -0.2046    0.0000 C   0  0  0  0  0  0  0  0  0  0  0  0
    3.5843   -0.6187    0.0000 C   0  0  0  0  0  0  0  0  0  0  0  0
    2.8677   -0.2058    0.0000 C   0  0  0  0  0  0  0  0  0  0  0  0
    3.5850   -1.4457    0.0000 C   0  0  0  0  0  0  0  0  0  0  0  0
    4.3015   -1.8586    0.0000 N   0  0  0  0  0  0  0  0  0  0  0  0
    4.3023   -2.6856    0.0000 C   0  0  0  0  0  0  0  0  0  0  0  0
    5.0188   -3.0984    0.0000 N   0  0  0  0  0  0  0  0  0  0  0  0
    5.7347   -2.6843    0.0000 C   0  0  0  0  0  0  0  0  0  0  0  0
    5.7347   -1.8561    0.0000 C   0  0  0  0  0  0  0  0  0  0  0  0
    6.4505   -1.4419    0.0000 C   0  0  0  0  0  0  0  0  0  0  0  0
    7.1664   -1.8561    0.0000 C   0  0  0  0  0  0  0  0  0  0  0  0
    7.9532   -1.6017    0.0000 N   0  0  0  0  0  0  0  0  0  0  0  0
    8.4442   -2.2702    0.0000 N   0  0  0  0  0  0  0  0  0  0  0  0
    7.9532   -2.9387    0.0000 C   0  0  0  0  0  0  0  0  0  0  0  0
    7.1664   -2.6843    0.0000 C   0  0  0  0  0  0  0  0  0  0  0  0
    6.4505   -3.0984    0.0000 C   0  0  0  0  0  0  0  0  0  0  0  0
    3.5864   -3.0997    0.0000 C   0  0  0  0  0  0  0  0  0  0  0  0
    3.5871   -3.9267    0.0000 C   0  0  0  0  0  0  0  0  0  0  0  0
    2.8713   -4.3408    0.0000 C   0  0  0  0  0  0  0  0  0  0  0  0
    2.1547   -3.9279    0.0000 C   0  0  0  0  0  0  0  0  0  0  0  0
    2.1540   -3.1009    0.0000 C   0  0  0  0  0  0  0  0  0  0  0  0
    2.8699   -2.6868    0.0000 C   0  0  0  0  0  0  0  0  0  0  0  0
    2.8691   -1.8598    0.0000 N   0  0  0  0  0  0  0  0  0  0  0  0
  1  2  1  0
  2  3  1  0
  2  4  1  0
  4  5  1  0
  5  6  2  0
  5  7  1  0
  7  8  1  0
  8  9  1  0
  9 14  2  0
  9 10  1  0
 10 11  2  0
 11 12  1  0
 12 13  2  0
 13 14  1  0
 13 15  1  0
 15 34  1  0
 15 16  2  0
 16 17  1  0
 17 18  1  0
 18 19  1  0
 19 27  1  0
 19 20  2  0
 20 21  1  0
 21 22  2  0
 22 26  1  0
 22 23  1  0
 23 24  1  0
 24 25  2  0
 25 26  1  0
 26 27  2  0
 17 28  2  0
 28 33  1  0
 28 29  1  0
 29 30  2  0
 30 31  1  0
 31 32  2  0
 32 33  1  0
 33 34  2  0
M  END
>  <SMILES>  (10) 
CC(C)NC(=O)COc1cccc(-c2nc(Nc3ccc4[nH]ncc4c3)c3ccccc3n2)c1

>  <CollectionName>  (10) 
emolecules

>  <LOG PLASMA PROTEIN BINDING (RAT) (% unbound)>  (10) 
-0.504455662454

>  <Internal ID>  (10) 
Mol10

>  <Source>  (10) 
Biogen

$$$$
43216036
     RDKit          2D

 26 29  0  0  0  0  0  0  0  0999 V2000
    0.0000   -3.2683    0.0000 C   0  0  0  0  0  0  0  0  0  0  0  0
    0.8225   -3.3547    0.0000 C   0  0  0  0  0  0  0  0  0  0  0  0
    1.3086   -2.6857    0.0000 S   0  0  0  0  0  0  0  0  0  0  0  0
    1.9776   -3.1718    0.0000 O   0  0  0  0  0  0  0  0  0  0  0  0
    0.6395   -2.1996    0.0000 O   0  0  0  0  0  0  0  0  0  0  0  0
    1.7947   -2.0166    0.0000 N   0  0  0  0  0  0  0  0  0  0  0  0
    1.6653   -1.1998    0.0000 C   0  0  0  0  0  0  0  0  0  0  0  0
    2.4821   -1.0704    0.0000 C   0  0  0  0  0  0  0  0  0  0  0  0
    3.2989   -0.9411    0.0000 C   0  0  0  0  0  0  0  0  0  0  0  0
    3.8194   -1.5838    0.0000 C   0  0  0  0  0  0  0  0  0  0  0  0
    4.3398   -2.2265    0.0000 N   0  0  0  0  0  0  0  0  0  0  0  0
    2.6115   -1.8873    0.0000 C   0  0  0  0  0  0  0  0  0  0  0  0
    2.9682   -0.4014    0.0000 N   0  0  0  0  0  0  0  0  0  0  0  0
    2.7127    0.3851    0.0000 C   0  0  0  0  0  0  0  0  0  0  0  0
    3.3817    0.8712    0.0000 C   0  0  0  0  0  0  0  0  0  0  0  0
    4.0508    0.3851    0.0000 C   0  0  0  0  0  0  0  0  0  0  0  0
    3.7952   -0.4014    0.0000 N   0  0  0  0  0  0  0  0  0  0  0  0
    3.3817    1.6982    0.0000 C   0  0  0  0  0  0  0  0  0  0  0  0
    2.6659    2.1124    0.0000 N   0  0  0  0  0  0  0  0  0  0  0  0
    2.6659    2.9406    0.0000 C   0  0  0  0  0  0  0  0  0  0  0  0
    3.3817    3.3547    0.0000 N   0  0  0  0  0  0  0  0  0  0  0  0
    4.0976    2.9406    0.0000 C   0  0  0  0  0  0  0  0  0  0  0  0
    4.8844    3.1950    0.0000 N   0  0  0  0  0  0  0  0  0  0  0  0
    5.3754    2.5265    0.0000 C   0  0  0  0  0  0  0  0  0  0  0  0
    4.8844    1.8580    0.0000 C   0  0  0  0  0  0  0  0  0  0  0  0
    4.0976    2.1124    0.0000 C   0  0  0  0  0  0  0  0  0  0  0  0
  1  2  1  0
  2  3  1  0
  3  4  2  0
  3  5  2  0
  3  6  1  0
  6 12  1  0
  6  7  1  0
  7  8  1  0
  8  9  1  0
  9 10  1  0
 10 11  3  0
  8 12  1  0
  8 13  1  0
 13 17  1  0
 13 14  1  0
 14 15  2  0
 15 16  1  0
 16 17  2  0
 15 18  1  0
 18 26  1  0
 18 19  2  0
 19 20  1  0
 20 21  2  0
 21 22  1  0
 22 26  2  0
 22 23  1  0
 23 24  1  0
 24 25  2  0
 25 26  1  0
M  END
>  <SMILES>  (11) 
CCS(=O)(=O)N1CC(CC#N)(n2cc(-c3ncnc4[nH]ccc34)cn2)C1

>  <CollectionName>  (11) 
emolecules

>  <LOG PLASMA PROTEIN BINDING (RAT) (% unbound)>  (11) 
2.0

>  <Internal ID>  (11) 
Mol11

>  <Source>  (11) 
Biogen

$$$$
2171363
     RDKit          2D

 24 26  0  0  0  0  0  0  0  0999 V2000
    9.5167   -0.7162    0.0000 C   0  0  0  0  0  0  0  0  0  0  0  0
    9.1032    0.0000    0.0000 O   0  0  0  0  0  0  0  0  0  0  0  0
    8.2762    0.0000    0.0000 C   0  0  0  0  0  0  0  0  0  0  0  0
    7.8627   -0.7162    0.0000 C   0  0  0  0  0  0  0  0  0  0  0  0
    7.0357   -0.7162    0.0000 C   0  0  0  0  0  0  0  0  0  0  0  0
    6.6222    0.0000    0.0000 C   0  0  0  0  0  0  0  0  0  0  0  0
    7.0357    0.7162    0.0000 C   0  0  0  0  0  0  0  0  0  0  0  0
    7.8627    0.7162    0.0000 C   0  0  0  0  0  0  0  0  0  0  0  0
    5.7952    0.0000    0.0000 S   0  0  0  0  0  0  0  0  0  0  0  0
    5.7952   -0.8270    0.0000 O   0  0  0  0  0  0  0  0  0  0  0  0
    5.7952    0.8270    0.0000 O   0  0  0  0  0  0  0  0  0  0  0  0
    4.9682    0.0000    0.0000 N   0  0  0  0  0  0  0  0  0  0  0  0
    4.5541   -0.7158    0.0000 C   0  0  0  0  0  0  0  0  0  0  0  0
    3.7259   -0.7158    0.0000 C   0  0  0  0  0  0  0  0  0  0  0  0
    3.3117    0.0000    0.0000 C   0  0  0  0  0  0  0  0  0  0  0  0
    3.7259    0.7158    0.0000 C   0  0  0  0  0  0  0  0  0  0  0  0
    4.5541    0.7158    0.0000 C   0  0  0  0  0  0  0  0  0  0  0  0
    2.4835    0.0000    0.0000 N   0  0  0  0  0  0  0  0  0  0  0  0
    2.0694   -0.7158    0.0000 C   0  0  0  0  0  0  0  0  0  0  0  0
    1.2411   -0.7158    0.0000 C   0  0  0  0  0  0  0  0  0  0  0  0
    0.8270    0.0000    0.0000 C   0  0  0  0  0  0  0  0  0  0  0  0
    0.0000    0.0000    0.0000 C   0  0  0  0  0  0  0  0  0  0  0  0
    1.2411    0.7158    0.0000 C   0  0  0  0  0  0  0  0  0  0  0  0
    2.0694    0.7158    0.0000 C   0  0  0  0  0  0  0  0  0  0  0  0
  1  2  1  0
  2  3  1  0
  3  8  2  0
  3  4  1  0
  4  5  2  0
  5  6  1  0
  6  7  2  0
  7  8  1  0
  6  9  1  0
  9 10  2  0
  9 11  2  0
  9 12  1  0
 12 17  1  0
 12 13  1  0
 13 14  1  0
 14 15  1  0
 15 16  1  0
 16 17  1  0
 15 18  1  0
 18 24  1  0
 18 19  1  0
 19 20  1  0
 20 21  1  0
 21 22  1  0
 21 23  1  0
 23 24  1  0
M  END
>  <SMILES>  (12) 
COc1ccc(S(=O)(=O)N2CCC(N3CCC(C)CC3)CC2)cc1

>  <CollectionName>  (12) 
emolecules

>  <LOG PLASMA PROTEIN BINDING (RAT) (% unbound)>  (12) 
1.6260767675

>  <Internal ID>  (12) 
Mol12

>  <Source>  (12) 
Biogen

$$$$
36366966
     RDKit          2D

 42 47  0  0  0  0  0  0  0  0999 V2000
    4.7101    0.0857    0.0000 C   0  0  0  0  0  0  0  0  0  0  0  0
    3.9019   -0.0895    0.0000 C   0  0  0  0  0  0  0  0  0  0  0  0
    3.6495   -0.8770    0.0000 N   0  0  0  0  0  0  0  0  0  0  0  0
    4.1405   -1.5455    0.0000 C   0  0  0  0  0  0  0  0  0  0  0  0
    3.6495   -2.2140    0.0000 N   0  0  0  0  0  0  0  0  0  0  0  0
    2.8626   -1.9596    0.0000 C   0  0  0  0  0  0  0  0  0  0  0  0
    2.1468   -2.3738    0.0000 C   0  0  0  0  0  0  0  0  0  0  0  0
    1.4310   -1.9596    0.0000 N   0  0  0  0  0  0  0  0  0  0  0  0
    1.4310   -1.1314    0.0000 C   0  0  0  0  0  0  0  0  0  0  0  0
    0.7151   -0.7173    0.0000 O   0  0  0  0  0  0  0  0  0  0  0  0
    0.7158    0.1097    0.0000 C   0  0  0  0  0  0  0  0  0  0  0  0
    0.0000    0.5238    0.0000 C   0  0  0  0  0  0  0  0  0  0  0  0
    0.0007    1.3508    0.0000 C   0  0  0  0  0  0  0  0  0  0  0  0
    0.7173    1.7637    0.0000 C   0  0  0  0  0  0  0  0  0  0  0  0
    1.4331    1.3496    0.0000 C   0  0  0  0  0  0  0  0  0  0  0  0
    2.1497    1.7625    0.0000 N   0  0  0  0  0  0  0  0  0  0  0  0
    2.8655    1.3484    0.0000 C   0  0  0  0  0  0  0  0  0  0  0  0
    2.8648    0.5214    0.0000 O   0  0  0  0  0  0  0  0  0  0  0  0
    3.5821    1.7612    0.0000 C   0  0  0  0  0  0  0  0  0  0  0  0
    3.5828    2.5882    0.0000 C   0  0  0  0  0  0  0  0  0  0  0  0
    4.2994    3.0011    0.0000 C   0  0  0  0  0  0  0  0  0  0  0  0
    5.0152    2.5870    0.0000 C   0  0  0  0  0  0  0  0  0  0  0  0
    5.7318    2.9999    0.0000 O   0  0  0  0  0  0  0  0  0  0  0  0
    6.4476    2.5857    0.0000 C   0  0  0  0  0  0  0  0  0  0  0  0
    7.1642    2.9986    0.0000 C   0  0  0  0  0  0  0  0  0  0  0  0
    7.8800    2.5845    0.0000 N   0  0  0  0  0  0  0  0  0  0  0  0
    8.5966    2.9974    0.0000 C   0  0  0  0  0  0  0  0  0  0  0  0
    9.3124    2.5832    0.0000 C   0  0  0  0  0  0  0  0  0  0  0  0
    9.3117    1.7562    0.0000 O   0  0  0  0  0  0  0  0  0  0  0  0
    8.5952    1.3434    0.0000 C   0  0  0  0  0  0  0  0  0  0  0  0
    7.8793    1.7575    0.0000 C   0  0  0  0  0  0  0  0  0  0  0  0
    5.0145    1.7600    0.0000 C   0  0  0  0  0  0  0  0  0  0  0  0
    4.2979    1.3471    0.0000 C   0  0  0  0  0  0  0  0  0  0  0  0
    1.4324    0.5226    0.0000 C   0  0  0  0  0  0  0  0  0  0  0  0
    2.1468   -0.7173    0.0000 C   0  0  0  0  0  0  0  0  0  0  0  0
    2.8626   -1.1314    0.0000 C   0  0  0  0  0  0  0  0  0  0  0  0
    4.9675   -1.5455    0.0000 C   0  0  0  0  0  0  0  0  0  0  0  0
    5.4536   -0.8765    0.0000 N   0  0  0  0  0  0  0  0  0  0  0  0
    6.2401   -1.1320    0.0000 O   0  0  0  0  0  0  0  0  0  0  0  0
    6.2401   -1.9590    0.0000 N   0  0  0  0  0  0  0  0  0  0  0  0
    5.4536   -2.2146    0.0000 C   0  0  0  0  0  0  0  0  0  0  0  0
    5.1981   -3.0011    0.0000 N   0  0  0  0  0  0  0  0  0  0  0  0
  1  2  1  0
  2  3  1  0
  3 36  1  0
  3  4  1  0
  4  5  2  0
  5  6  1  0
  6 36  2  0
  6  7  1  0
  7  8  2  0
  8  9  1  0
  9 10  1  0
 10 11  1  0
 11 34  1  0
 11 12  2  0
 12 13  1  0
 13 14  2  0
 14 15  1  0
 15 16  1  0
 16 17  1  0
 17 18  2  0
 17 19  1  0
 19 33  1  0
 19 20  2  0
 20 21  1  0
 21 22  2  0
 22 23  1  0
 23 24  1  0
 24 25  1  0
 25 26  1  0
 26 31  1  0
 26 27  1  0
 27 28  1  0
 28 29  1  0
 29 30  1  0
 30 31  1  0
 22 32  1  0
 32 33  2  0
 15 34  2  0
  9 35  2  0
 35 36  1  0
  4 37  1  0
 37 41  1  0
 37 38  2  0
 38 39  1  0
 39 40  1  0
 40 41  2  0
 41 42  1  0
M  END
>  <SMILES>  (13) 
CCn1c(-c2nonc2N)nc2cnc(Oc3cccc(NC(=O)c4ccc(OCCN5CCOCC5)cc4)c3)cc21

>  <CollectionName>  (13) 
emolecules

>  <LOG PLASMA PROTEIN BINDING (RAT) (% unbound)>  (13) 
-0.325138859262

>  <Internal ID>  (13) 
Mol13

>  <Source>  (13) 
Biogen

$$$$
50283346
     RDKit          2D

 40 44  0  0  1  0  0  0  0  0999 V2000
    0.7155   -3.3070    0.0000 C   0  0  0  0  0  0  0  0  0  0  0  0
    1.5425   -3.3070    0.0000 C   0  0  0  0  0  0  0  0  0  0  0  0
    1.5425   -4.1340    0.0000 F   0  0  0  0  0  0  0  0  0  0  0  0
    2.3695   -3.3070    0.0000 F   0  0  0  0  0  0  0  0  0  0  0  0
    1.5425   -2.4800    0.0000 C   0  0  0  0  0  0  0  0  0  0  0  0
    0.8263   -2.0665    0.0000 O   0  0  0  0  0  0  0  0  0  0  0  0
    2.2587   -2.0665    0.0000 N   0  0  0  0  0  0  0  0  0  0  0  0
    2.2587   -1.2395    0.0000 C   0  0  0  0  0  0  0  0  0  0  0  0
    1.5428   -1.6537    0.0000 C   0  0  0  0  0  0  0  0  0  0  0  0
    0.8270   -1.2395    0.0000 C   0  0  0  0  0  0  0  0  0  0  0  0
    0.8270   -0.4113    0.0000 C   0  0  0  0  0  0  0  0  0  0  0  0
    0.0000   -0.4106    0.0000 C   0  0  0  0  0  0  0  0  0  0  0  0
    0.4141    0.3053    0.0000 C   0  0  0  0  0  0  0  0  0  0  0  0
    1.5428    0.0028    0.0000 C   0  0  0  0  0  0  0  0  0  0  0  0
    2.2587   -0.4113    0.0000 C   0  0  0  0  0  0  0  0  0  0  0  0
    2.9804    0.0028    0.0000 C   0  0  0  0  0  0  0  0  0  0  0  0
    2.9818    0.8299    0.0000 C   0  0  0  0  0  0  0  0  0  0  0  0
    2.2662    1.2446    0.0000 O   0  0  0  0  0  0  0  0  0  0  0  0
    3.6985    1.2425    0.0000 C   0  0  0  0  0  0  0  0  0  0  0  0
    4.4142    0.8280    0.0000 C   0  0  0  0  0  0  0  0  0  0  0  0
    5.1309    1.2405    0.0000 C   0  0  0  0  0  0  0  0  0  0  0  0
    4.4153    1.6550    0.0000 C   0  0  0  0  0  0  0  0  0  0  0  0
    5.1321    2.0675    0.0000 C   0  0  0  0  0  0  0  0  0  0  0  0
    5.8488    2.4800    0.0000 C   0  0  0  0  0  0  0  0  0  0  0  0
    5.8500    3.3070    0.0000 C   0  0  0  0  0  0  0  0  0  0  0  0
    5.8511    4.1340    0.0000 N   0  0  0  0  0  0  0  0  0  0  0  0
    6.5645    2.0656    0.0000 C   0  0  0  0  0  0  0  0  0  0  0  0
    7.2813    2.4781    0.0000 O   0  0  0  0  0  0  0  0  0  0  0  0
    6.5633    1.2386    0.0000 C   0  0  0  0  0  0  0  0  0  0  0  0
    7.3903    1.2374    0.0000 C   0  0  0  0  0  0  0  0  0  0  0  0
    6.8934    0.6651    0.0000 C   0  0  0  0  0  0  0  0  0  0  0  0
    5.8466    0.8260    0.0000 C   0  0  0  0  0  0  0  0  0  0  0  0
    5.8454   -0.0010    0.0000 C   0  0  0  0  0  0  0  0  0  0  0  0
    5.1287   -0.4135    0.0000 C   0  0  0  0  0  0  0  0  0  0  0  0
    4.4130    0.0010    0.0000 C   0  0  0  0  0  0  0  0  0  0  0  0
    4.4122   -0.6606    0.0000 C   0  0  0  0  0  0  0  0  0  0  0  0
    3.6963   -0.4113    0.0000 C   0  0  0  0  0  0  0  0  0  0  0  0
    4.2690   -0.7426    0.0000 C   0  0  0  0  0  0  0  0  0  0  0  0
    3.6963   -1.2395    0.0000 C   0  0  0  0  0  0  0  0  0  0  0  0
    2.9804   -1.6537    0.0000 C   0  0  0  0  0  0  0  0  0  0  0  0
  1  2  1  0
  2  3  1  0
  2  4  1  0
  2  5  1  0
  5  6  2  0
  5  7  1  0
  8  7  1  6
  8 15  1  0
  8 40  1  0
  8  9  1  0
  9 10  1  0
 10 11  1  0
 11 12  1  0
 11 13  1  0
 11 14  1  0
 15 14  1  1
 15 16  1  0
 16 37  1  0
 16 17  1  1
 17 18  2  0
 17 19  1  0
 19 20  2  0
 20 35  1  0
 20 21  1  0
 21 32  1  0
 21 22  1  6
 21 23  1  0
 23 24  2  0
 24 25  1  0
 25 26  3  0
 24 27  1  0
 27 28  2  0
 27 29  1  0
 29 30  1  0
 29 31  1  0
 29 32  1  0
 32 33  1  6
 33 34  1  0
 34 35  1  0
 35 36  1  6
 35 37  1  0
 37 38  1  1
 37 39  1  0
 39 40  1  0
M  END
>  <SMILES>  (14) 
CC1(C)CC[C@]2(NC(=O)C(C)(F)F)CC[C@]3(C)[C@H](C(=O)C=C4[C@@]5(C)C=C(C#N)C(=O)C(C)(C)[C@@H]5CC[C@]43C)[C@@H]2C1

>  <CollectionName>  (14) 
emolecules

>  <LOG PLASMA PROTEIN BINDING (RAT) (% unbound)>  (14) 
-0.0555173278498

>  <Internal ID>  (14) 
Mol14

>  <Source>  (14) 
Biogen

$$$$
44811754
     RDKit          2D

 28 31  0  0  0  0  0  0  0  0999 V2000
    6.0523    1.0249    0.0000 C   0  0  0  0  0  0  0  0  0  0  0  0
    5.7999    1.8125    0.0000 C   0  0  0  0  0  0  0  0  0  0  0  0
    6.2909    2.4810    0.0000 C   0  0  0  0  0  0  0  0  0  0  0  0
    5.7999    3.1495    0.0000 N   0  0  0  0  0  0  0  0  0  0  0  0
    5.0131    2.8951    0.0000 C   0  0  0  0  0  0  0  0  0  0  0  0
    4.2972    3.3092    0.0000 N   0  0  0  0  0  0  0  0  0  0  0  0
    3.5814    2.8951    0.0000 C   0  0  0  0  0  0  0  0  0  0  0  0
    3.5814    2.0669    0.0000 C   0  0  0  0  0  0  0  0  0  0  0  0
    4.2972    1.6528    0.0000 C   0  0  0  0  0  0  0  0  0  0  0  0
    4.2972    0.8258    0.0000 O   0  0  0  0  0  0  0  0  0  0  0  0
    3.5810    0.4123    0.0000 C   0  0  0  0  0  0  0  0  0  0  0  0
    3.5810   -0.4147    0.0000 C   0  0  0  0  0  0  0  0  0  0  0  0
    4.2972   -0.8282    0.0000 F   0  0  0  0  0  0  0  0  0  0  0  0
    2.8648   -0.8282    0.0000 C   0  0  0  0  0  0  0  0  0  0  0  0
    2.1486   -0.4147    0.0000 C   0  0  0  0  0  0  0  0  0  0  0  0
    1.4324   -0.8282    0.0000 N   0  0  0  0  0  0  0  0  0  0  0  0
    1.4324   -1.6552    0.0000 C   0  0  0  0  0  0  0  0  0  0  0  0
    2.1486   -2.0687    0.0000 C   0  0  0  0  0  0  0  0  0  0  0  0
    2.1486   -2.8957    0.0000 C   0  0  0  0  0  0  0  0  0  0  0  0
    2.8648   -3.3092    0.0000 Cl  0  0  0  0  0  0  0  0  0  0  0  0
    1.4324   -3.3092    0.0000 N   0  0  0  0  0  0  0  0  0  0  0  0
    0.7162   -2.8957    0.0000 C   0  0  0  0  0  0  0  0  0  0  0  0
    0.0000   -3.3092    0.0000 N   0  0  0  0  0  0  0  0  0  0  0  0
    0.7162   -2.0687    0.0000 N   0  0  0  0  0  0  0  0  0  0  0  0
    2.1486    0.4123    0.0000 C   0  0  0  0  0  0  0  0  0  0  0  0
    2.8648    0.8258    0.0000 C   0  0  0  0  0  0  0  0  0  0  0  0
    2.8648    1.6528    0.0000 F   0  0  0  0  0  0  0  0  0  0  0  0
    5.0131    2.0669    0.0000 C   0  0  0  0  0  0  0  0  0  0  0  0
  1  2  1  0
  2 28  1  0
  2  3  2  0
  3  4  1  0
  4  5  1  0
  5 28  2  0
  5  6  1  0
  6  7  2  0
  7  8  1  0
  8  9  2  0
  9 10  1  0
 10 11  1  0
 11 26  1  0
 11 12  2  0
 12 13  1  0
 12 14  1  0
 14 15  2  0
 15 16  1  0
 16 17  1  0
 17 24  1  0
 17 18  2  0
 18 19  1  0
 19 20  1  0
 19 21  2  0
 21 22  1  0
 22 23  1  0
 22 24  2  0
 15 25  1  0
 25 26  2  0
 26 27  1  0
  9 28  1  0
M  END
>  <SMILES>  (15) 
Cc1c[nH]c2nccc(Oc3c(F)cc(Nc4cc(Cl)nc(N)n4)cc3F)c12

>  <CollectionName>  (15) 
emolecules

>  <LOG PLASMA PROTEIN BINDING (RAT) (% unbound)>  (15) 
-0.686132779631

>  <Internal ID>  (15) 
Mol15

>  <Source>  (15) 
Biogen

$$$$
300112437
     RDKit          2D

 34 37  0  0  1  0  0  0  0  0999 V2000
    2.1486    4.6360    0.0000 C   0  0  0  0  0  0  0  0  0  0  0  0
    1.4324    4.2225    0.0000 O   0  0  0  0  0  0  0  0  0  0  0  0
    1.4324    3.3955    0.0000 C   0  0  0  0  0  0  0  0  0  0  0  0
    2.1486    2.9820    0.0000 C   0  0  0  0  0  0  0  0  0  0  0  0
    2.1486    2.1550    0.0000 C   0  0  0  0  0  0  0  0  0  0  0  0
    2.5621    1.4388    0.0000 C   0  0  0  0  0  0  0  0  0  0  0  0
    1.8459    1.0253    0.0000 C   0  0  0  0  0  0  0  0  0  0  0  0
    2.0599    0.2264    0.0000 C   0  0  0  0  0  0  0  0  0  0  0  0
    2.8588    0.0124    0.0000 N   0  0  0  0  0  0  0  0  0  0  0  0
    3.4435    0.5972    0.0000 C   0  0  0  0  0  0  0  0  0  0  0  0
    3.0728   -0.7864    0.0000 C   0  0  0  0  0  0  0  0  0  0  0  0
    3.8716   -1.0005    0.0000 C   0  0  0  0  0  0  0  0  0  0  0  0
    4.0857   -1.7993    0.0000 C   0  0  0  0  0  0  0  0  0  0  0  0
    4.8845   -2.0133    0.0000 N   0  0  0  0  0  0  0  0  0  0  0  0
    5.4239   -1.3865    0.0000 C   0  0  0  0  0  0  0  0  0  0  0  0
    6.2504   -1.4174    0.0000 C   0  0  0  0  0  0  0  0  0  0  0  0
    6.7415   -2.0828    0.0000 C   0  0  0  0  0  0  0  0  0  0  0  0
    7.5403   -1.8688    0.0000 C   0  0  0  0  0  0  0  0  0  0  0  0
    8.1250   -2.4535    0.0000 C   0  0  0  0  0  0  0  0  0  0  0  0
    8.9239   -2.2395    0.0000 O   0  0  0  0  0  0  0  0  0  0  0  0
    9.5086   -2.8243    0.0000 C   0  0  0  0  0  0  0  0  0  0  0  0
    7.9110   -3.2524    0.0000 C   0  0  0  0  0  0  0  0  0  0  0  0
    8.4958   -3.8371    0.0000 O   0  0  0  0  0  0  0  0  0  0  0  0
    8.2817   -4.6360    0.0000 C   0  0  0  0  0  0  0  0  0  0  0  0
    7.1122   -3.4664    0.0000 C   0  0  0  0  0  0  0  0  0  0  0  0
    6.5274   -2.8816    0.0000 C   0  0  0  0  0  0  0  0  0  0  0  0
    5.7694   -3.2123    0.0000 C   0  0  0  0  0  0  0  0  0  0  0  0
    5.0382   -2.8259    0.0000 C   0  0  0  0  0  0  0  0  0  0  0  0
    4.3728   -3.3170    0.0000 O   0  0  0  0  0  0  0  0  0  0  0  0
    1.4324    1.7415    0.0000 C   0  0  0  0  0  0  0  0  0  0  0  0
    0.7162    2.1550    0.0000 C   0  0  0  0  0  0  0  0  0  0  0  0
    0.7162    2.9820    0.0000 C   0  0  0  0  0  0  0  0  0  0  0  0
    0.0000    3.3955    0.0000 O   0  0  0  0  0  0  0  0  0  0  0  0
    0.0000    4.2225    0.0000 C   0  0  0  0  0  0  0  0  0  0  0  0
  1  2  1  0
  2  3  1  0
  3 32  2  0
  3  4  1  0
  4  5  2  0
  5 30  1  0
  5  6  1  0
  6  7  1  0
  7  8  1  6
  8  9  1  0
  9 10  1  0
  9 11  1  0
 11 12  1  0
 12 13  1  0
 13 14  1  0
 14 28  1  0
 14 15  1  0
 15 16  1  0
 16 17  1  0
 17 26  2  0
 17 18  1  0
 18 19  2  0
 19 20  1  0
 20 21  1  0
 19 22  1  0
 22 23  1  0
 23 24  1  0
 22 25  2  0
 25 26  1  0
 26 27  1  0
 27 28  1  0
 28 29  2  0
  7 30  1  0
 30 31  2  0
 31 32  1  0
 32 33  1  0
 33 34  1  0
M  END
>  <SMILES>  (16) 
COc1cc2c(cc1OC)CC(=O)N(CCCN(C)C[C@H]1Cc3cc(OC)c(OC)cc31)CC2

>  <CollectionName>  (16) 
emolecules

>  <LOG PLASMA PROTEIN BINDING (RAT) (% unbound)>  (16) 
1.61513959433

>  <Internal ID>  (16) 
Mol16

>  <Source>  (16) 
Biogen

$$$$
48544545
     RDKit          2D

 25 28  0  0  0  0  0  0  0  0999 V2000
    4.9682    2.5013    0.0000 O   0  0  0  0  0  0  0  0  0  0  0  0
    4.1412    2.5013    0.0000 C   0  0  0  0  0  0  0  0  0  0  0  0
    3.6502    3.1699    0.0000 N   0  0  0  0  0  0  0  0  0  0  0  0
    2.8634    2.9155    0.0000 C   0  0  0  0  0  0  0  0  0  0  0  0
    2.1475    3.3296    0.0000 C   0  0  0  0  0  0  0  0  0  0  0  0
    1.4317    2.9155    0.0000 C   0  0  0  0  0  0  0  0  0  0  0  0
    1.4317    2.0872    0.0000 C   0  0  0  0  0  0  0  0  0  0  0  0
    2.1475    1.6731    0.0000 C   0  0  0  0  0  0  0  0  0  0  0  0
    2.8634    2.0872    0.0000 C   0  0  0  0  0  0  0  0  0  0  0  0
    3.6502    1.8328    0.0000 C   0  0  0  0  0  0  0  0  0  0  0  0
    3.9026    1.0453    0.0000 C   0  0  0  0  0  0  0  0  0  0  0  0
    4.7109    0.8701    0.0000 C   0  0  0  0  0  0  0  0  0  0  0  0
    4.9633    0.0826    0.0000 C   0  0  0  0  0  0  0  0  0  0  0  0
    4.4075   -0.5298    0.0000 C   0  0  0  0  0  0  0  0  0  0  0  0
    4.6599   -1.3173    0.0000 C   0  0  0  0  0  0  0  0  0  0  0  0
    4.1040   -1.9297    0.0000 N   0  0  0  0  0  0  0  0  0  0  0  0
    4.3565   -2.7172    0.0000 C   0  0  0  0  0  0  0  0  0  0  0  0
    3.8006   -3.3296    0.0000 C   0  0  0  0  0  0  0  0  0  0  0  0
    2.9924   -3.1544    0.0000 O   0  0  0  0  0  0  0  0  0  0  0  0
    2.7400   -2.3669    0.0000 C   0  0  0  0  0  0  0  0  0  0  0  0
    3.2958   -1.7545    0.0000 C   0  0  0  0  0  0  0  0  0  0  0  0
    3.5992   -0.3546    0.0000 C   0  0  0  0  0  0  0  0  0  0  0  0
    3.3468    0.4329    0.0000 N   0  0  0  0  0  0  0  0  0  0  0  0
    0.7158    1.6731    0.0000 C   0  0  0  0  0  0  0  0  0  0  0  0
    0.0000    1.2590    0.0000 N   0  0  0  0  0  0  0  0  0  0  0  0
  1  2  1  0
  2 10  2  0
  2  3  1  0
  3  4  1  0
  4  9  2  0
  4  5  1  0
  5  6  2  0
  6  7  1  0
  7  8  2  0
  8  9  1  0
  9 10  1  0
 10 11  1  0
 11 23  1  0
 11 12  2  0
 12 13  1  0
 13 14  2  0
 14 15  1  0
 15 16  1  0
 16 21  1  0
 16 17  1  0
 17 18  1  0
 18 19  1  0
 19 20  1  0
 20 21  1  0
 14 22  1  0
 22 23  2  0
  7 24  1  0
 24 25  3  0
M  END
>  <SMILES>  (17) 
N#Cc1ccc2[nH]c(O)c(-c3ccc(CN4CCOCC4)cn3)c2c1

>  <CollectionName>  (17) 
emolecules

>  <LOG PLASMA PROTEIN BINDING (RAT) (% unbound)>  (17) 
1.07250723553

>  <Internal ID>  (17) 
Mol17

>  <Source>  (17) 
Biogen

$$$$
44507857
     RDKit          2D

 25 29  0  0  0  0  0  0  0  0999 V2000
    2.0503    2.7961    0.0000 C   0  0  0  0  0  0  0  0  0  0  0  0
    2.0496    1.9691    0.0000 C   0  0  0  0  0  0  0  0  0  0  0  0
    1.3331    1.5563    0.0000 C   0  0  0  0  0  0  0  0  0  0  0  0
    1.3323    0.7293    0.0000 C   0  0  0  0  0  0  0  0  0  0  0  0
    2.0482    0.3151    0.0000 C   0  0  0  0  0  0  0  0  0  0  0  0
    2.0475   -0.5119    0.0000 C   0  0  0  0  0  0  0  0  0  0  0  0
    2.7633   -0.9260    0.0000 N   0  0  0  0  0  0  0  0  0  0  0  0
    2.7633   -1.7542    0.0000 C   0  0  0  0  0  0  0  0  0  0  0  0
    3.4792   -2.1683    0.0000 C   0  0  0  0  0  0  0  0  0  0  0  0
    4.1950   -1.7542    0.0000 C   0  0  0  0  0  0  0  0  0  0  0  0
    4.1950   -0.9260    0.0000 C   0  0  0  0  0  0  0  0  0  0  0  0
    3.4792   -0.5118    0.0000 C   0  0  0  0  0  0  0  0  0  0  0  0
    4.9818   -0.6716    0.0000 N   0  0  0  0  0  0  0  0  0  0  0  0
    5.4729   -1.3401    0.0000 C   0  0  0  0  0  0  0  0  0  0  0  0
    6.2999   -1.3401    0.0000 C   0  0  0  0  0  0  0  0  0  0  0  0
    7.0161   -0.9266    0.0000 C   0  0  0  0  0  0  0  0  0  0  0  0
    7.0161   -1.7536    0.0000 C   0  0  0  0  0  0  0  0  0  0  0  0
    4.9818   -2.0086    0.0000 N   0  0  0  0  0  0  0  0  0  0  0  0
    5.2342   -2.7961    0.0000 C   0  0  0  0  0  0  0  0  0  0  0  0
    1.3309   -0.9247    0.0000 N   0  0  0  0  0  0  0  0  0  0  0  0
    1.1583   -1.7335    0.0000 N   0  0  0  0  0  0  0  0  0  0  0  0
    0.3357   -1.8192    0.0000 C   0  0  0  0  0  0  0  0  0  0  0  0
    0.0000   -1.0634    0.0000 N   0  0  0  0  0  0  0  0  0  0  0  0
    0.6151   -0.5106    0.0000 C   0  0  0  0  0  0  0  0  0  0  0  0
    0.6158    0.3164    0.0000 N   0  0  0  0  0  0  0  0  0  0  0  0
  1  2  1  0
  2  3  1  0
  3  4  1  0
  4 25  2  0
  4  5  1  0
  5  6  2  0
  6  7  1  0
  7 12  1  0
  7  8  1  0
  8  9  1  0
  9 10  1  0
 10 18  1  0
 10 11  2  0
 11 12  1  0
 11 13  1  0
 13 14  2  0
 14 15  1  0
 15 17  1  0
 15 16  1  0
 16 17  1  0
 14 18  1  0
 18 19  1  0
  6 20  1  0
 20 24  1  0
 20 21  1  0
 21 22  2  0
 22 23  1  0
 23 24  2  0
 24 25  1  0
M  END
>  <SMILES>  (18) 
CCCc1cc(N2CCc3c(nc(C4CC4)n3C)C2)n2ncnc2n1

>  <CollectionName>  (18) 
emolecules

>  <LOG PLASMA PROTEIN BINDING (RAT) (% unbound)>  (18) 
1.38820780743

>  <Internal ID>  (18) 
Mol18

>  <Source>  (18) 
Biogen

$$$$
194974866
     RDKit          2D

 20 23  0  0  0  0  0  0  0  0999 V2000
    7.3075    0.6072    0.0000 F   0  0  0  0  0  0  0  0  0  0  0  0
    6.4987    0.4347    0.0000 C   0  0  0  0  0  0  0  0  0  0  0  0
    6.2437   -0.3520    0.0000 C   0  0  0  0  0  0  0  0  0  0  0  0
    5.4348   -0.5245    0.0000 C   0  0  0  0  0  0  0  0  0  0  0  0
    4.8811    0.0898    0.0000 C   0  0  0  0  0  0  0  0  0  0  0  0
    5.1361    0.8764    0.0000 C   0  0  0  0  0  0  0  0  0  0  0  0
    5.9449    1.0489    0.0000 N   0  0  0  0  0  0  0  0  0  0  0  0
    4.0723   -0.0827    0.0000 C   0  0  0  0  0  0  0  0  0  0  0  0
    3.8174   -0.8711    0.0000 C   0  0  0  0  0  0  0  0  0  0  0  0
    3.0053   -1.0489    0.0000 C   0  0  0  0  0  0  0  0  0  0  0  0
    2.4540   -0.4324    0.0000 C   0  0  0  0  0  0  0  0  0  0  0  0
    2.7089    0.3619    0.0000 C   0  0  0  0  0  0  0  0  0  0  0  0
    3.5210    0.5338    0.0000 C   0  0  0  0  0  0  0  0  0  0  0  0
    2.0391    0.8479    0.0000 N   0  0  0  0  0  0  0  0  0  0  0  0
    1.3633    0.3619    0.0000 C   0  0  0  0  0  0  0  0  0  0  0  0
    0.5513    0.5338    0.0000 C   0  0  0  0  0  0  0  0  0  0  0  0
    0.0000   -0.0827    0.0000 C   0  0  0  0  0  0  0  0  0  0  0  0
    0.2549   -0.8711    0.0000 N   0  0  0  0  0  0  0  0  0  0  0  0
    1.0670   -1.0489    0.0000 C   0  0  0  0  0  0  0  0  0  0  0  0
    1.6242   -0.4324    0.0000 C   0  0  0  0  0  0  0  0  0  0  0  0
  1  2  1  0
  2  7  2  0
  2  3  1  0
  3  4  2  0
  4  5  1  0
  5  6  2  0
  6  7  1  0
  5  8  1  0
  8 13  1  0
  8  9  2  0
  9 10  1  0
 10 11  2  0
 11 20  1  0
 11 12  1  0
 12 13  2  0
 12 14  1  0
 14 15  1  0
 15 20  2  0
 15 16  1  0
 16 17  2  0
 17 18  1  0
 18 19  2  0
 19 20  1  0
M  END
>  <SMILES>  (19) 
Fc1ccc(-c2ccc3c(c2)[nH]c2ccncc23)cn1

>  <CollectionName>  (19) 
emolecules

>  <LOG PLASMA PROTEIN BINDING (RAT) (% unbound)>  (19) 
0.640978057358

>  <Internal ID>  (19) 
Mol19

>  <Source>  (19) 
Biogen

$$$$
76751123
     RDKit          2D

 21 24  0  0  0  0  0  0  0  0999 V2000
    0.8035    1.2732    0.0000 N   0  0  0  0  0  0  0  0  0  0  0  0
    1.6117    1.4483    0.0000 C   0  0  0  0  0  0  0  0  0  0  0  0
    1.8641    2.2359    0.0000 C   0  0  0  0  0  0  0  0  0  0  0  0
    1.3083    2.8482    0.0000 F   0  0  0  0  0  0  0  0  0  0  0  0
    2.6724    2.4110    0.0000 C   0  0  0  0  0  0  0  0  0  0  0  0
    3.2282    1.7987    0.0000 C   0  0  0  0  0  0  0  0  0  0  0  0
    2.9758    1.0111    0.0000 C   0  0  0  0  0  0  0  0  0  0  0  0
    3.5316    0.3988    0.0000 C   0  0  0  0  0  0  0  0  0  0  0  0
    3.2792   -0.3888    0.0000 N   0  0  0  0  0  0  0  0  0  0  0  0
    2.4709   -0.5639    0.0000 C   0  0  0  0  0  0  0  0  0  0  0  0
    1.9151    0.0484    0.0000 C   0  0  0  0  0  0  0  0  0  0  0  0
    2.1675    0.8360    0.0000 C   0  0  0  0  0  0  0  0  0  0  0  0
    2.2185   -1.3515    0.0000 N   0  0  0  0  0  0  0  0  0  0  0  0
    2.7096   -2.0200    0.0000 C   0  0  0  0  0  0  0  0  0  0  0  0
    2.2185   -2.6885    0.0000 C   0  0  0  0  0  0  0  0  0  0  0  0
    1.4317   -2.4341    0.0000 C   0  0  0  0  0  0  0  0  0  0  0  0
    0.7158   -2.8482    0.0000 C   0  0  0  0  0  0  0  0  0  0  0  0
    0.0000   -2.4341    0.0000 C   0  0  0  0  0  0  0  0  0  0  0  0
    0.0000   -1.6059    0.0000 N   0  0  0  0  0  0  0  0  0  0  0  0
    0.7158   -1.1917    0.0000 C   0  0  0  0  0  0  0  0  0  0  0  0
    1.4317   -1.6059    0.0000 C   0  0  0  0  0  0  0  0  0  0  0  0
  1  2  1  0
  2 12  2  0
  2  3  1  0
  3  4  1  0
  3  5  2  0
  5  6  1  0
  6  7  2  0
  7 12  1  0
  7  8  1  0
  8  9  2  0
  9 10  1  0
 10 11  2  0
 11 12  1  0
 10 13  1  0
 13 21  1  0
 13 14  1  0
 14 15  2  0
 15 16  1  0
 16 21  2  0
 16 17  1  0
 17 18  2  0
 18 19  1  0
 19 20  2  0
 20 21  1  0
M  END
>  <SMILES>  (20) 
Nc1c(F)ccc2cnc(-n3ccc4ccncc43)cc12

>  <CollectionName>  (20) 
emolecules

>  <LOG PLASMA PROTEIN BINDING (RAT) (% unbound)>  (20) 
0.631443769013

>  <Internal ID>  (20) 
Mol20

>  <Source>  (20) 
Biogen

$$$$
106663882
     RDKit          2D

 21 23  0  0  1  0  0  0  0  0999 V2000
    0.4135   -1.3377    0.0000 C   0  0  0  0  0  0  0  0  0  0  0  0
    0.8270   -0.6215    0.0000 C   0  0  0  0  0  0  0  0  0  0  0  0
    0.8270    0.2055    0.0000 C   0  0  0  0  0  0  0  0  0  0  0  0
    1.5432    0.6190    0.0000 C   0  0  0  0  0  0  0  0  0  0  0  0
    2.2594    0.2055    0.0000 C   0  0  0  0  0  0  0  0  0  0  0  0
    2.2594   -0.6215    0.0000 C   0  0  0  0  0  0  0  0  0  0  0  0
    1.5432   -1.0350    0.0000 N   0  0  0  0  0  0  0  0  0  0  0  0
    1.5432   -1.8620    0.0000 C   0  0  0  0  0  0  0  0  0  0  0  0
    0.8270   -2.2755    0.0000 O   0  0  0  0  0  0  0  0  0  0  0  0
    2.2594   -2.2755    0.0000 C   0  0  0  0  0  0  0  0  0  0  0  0
    2.2594   -3.1025    0.0000 C   0  0  0  0  0  0  0  0  0  0  0  0
    2.9756    0.6190    0.0000 N   0  0  0  0  0  0  0  0  0  0  0  0
    2.9756    1.4460    0.0000 C   0  0  0  0  0  0  0  0  0  0  0  0
    2.2598    1.8601    0.0000 N   0  0  0  0  0  0  0  0  0  0  0  0
    2.2598    2.6884    0.0000 C   0  0  0  0  0  0  0  0  0  0  0  0
    2.9756    3.1025    0.0000 N   0  0  0  0  0  0  0  0  0  0  0  0
    3.6915    2.6884    0.0000 C   0  0  0  0  0  0  0  0  0  0  0  0
    4.4783    2.9428    0.0000 N   0  0  0  0  0  0  0  0  0  0  0  0
    4.9693    2.2743    0.0000 C   0  0  0  0  0  0  0  0  0  0  0  0
    4.4783    1.6057    0.0000 C   0  0  0  0  0  0  0  0  0  0  0  0
    3.6915    1.8601    0.0000 C   0  0  0  0  0  0  0  0  0  0  0  0
  2  1  1  1
  2  7  1  0
  2  3  1  0
  3  4  1  0
  4  5  1  0
  5  6  1  0
  6  7  1  0
  7  8  1  0
  8  9  2  0
  8 10  1  0
 10 11  2  0
  5 12  1  1
 12 13  1  0
 13 21  1  0
 13 14  2  0
 14 15  1  0
 15 16  2  0
 16 17  1  0
 17 21  2  0
 17 18  1  0
 18 19  1  0
 19 20  2  0
 20 21  1  0
M  END
>  <SMILES>  (21) 
C=CC(=O)N1C[C@H](Nc2ncnc3[nH]ccc23)CC[C@@H]1C

>  <CollectionName>  (21) 
emolecules

>  <LOG PLASMA PROTEIN BINDING (RAT) (% unbound)>  (21) 
1.74597992971

>  <Internal ID>  (21) 
Mol21

>  <Source>  (21) 
Biogen

$$$$
271384825
     RDKit          2D

 28 32  0  0  0  0  0  0  0  0999 V2000
    0.0818   -4.4383    0.0000 C   0  0  0  0  0  0  0  0  0  0  0  0
    0.4158   -3.6817    0.0000 N   0  0  0  0  0  0  0  0  0  0  0  0
    1.2241   -3.5072    0.0000 C   0  0  0  0  0  0  0  0  0  0  0  0
    1.3080   -2.6845    0.0000 C   0  0  0  0  0  0  0  0  0  0  0  0
    2.0229   -2.2688    0.0000 N   0  0  0  0  0  0  0  0  0  0  0  0
    2.0203   -1.4418    0.0000 C   0  0  0  0  0  0  0  0  0  0  0  0
    1.3028   -1.0305    0.0000 N   0  0  0  0  0  0  0  0  0  0  0  0
    1.3002   -0.2035    0.0000 C   0  0  0  0  0  0  0  0  0  0  0  0
    2.0151    0.2122    0.0000 C   0  0  0  0  0  0  0  0  0  0  0  0
    2.7326   -0.1990    0.0000 C   0  0  0  0  0  0  0  0  0  0  0  0
    2.7352   -1.0260    0.0000 N   0  0  0  0  0  0  0  0  0  0  0  0
    3.4475    0.2167    0.0000 N   0  0  0  0  0  0  0  0  0  0  0  0
    3.8265    0.0466    0.0000 C   0  0  0  0  0  0  0  0  0  0  0  0
    4.4682    0.5660    0.0000 C   0  0  0  0  0  0  0  0  0  0  0  0
    5.2323    0.2496    0.0000 C   0  0  0  0  0  0  0  0  0  0  0  0
    5.3398    0.6525    0.0000 C   0  0  0  0  0  0  0  0  0  0  0  0
    4.5757    0.9689    0.0000 C   0  0  0  0  0  0  0  0  0  0  0  0
    3.4893    0.6316    0.0000 C   0  0  0  0  0  0  0  0  0  0  0  0
    4.2683    1.3778    0.0000 N   0  0  0  0  0  0  0  0  0  0  0  0
    3.9508    2.1415    0.0000 C   0  0  0  0  0  0  0  0  0  0  0  0
    3.1308    2.2484    0.0000 O   0  0  0  0  0  0  0  0  0  0  0  0
    4.4535    2.7982    0.0000 C   0  0  0  0  0  0  0  0  0  0  0  0
    5.2172    3.1156    0.0000 C   0  0  0  0  0  0  0  0  0  0  0  0
    4.5604    3.6182    0.0000 C   0  0  0  0  0  0  0  0  0  0  0  0
    4.6674    4.4383    0.0000 F   0  0  0  0  0  0  0  0  0  0  0  0
    3.9037    4.1209    0.0000 F   0  0  0  0  0  0  0  0  0  0  0  0
    0.5514   -2.3505    0.0000 C   0  0  0  0  0  0  0  0  0  0  0  0
    0.0000   -2.9668    0.0000 N   0  0  0  0  0  0  0  0  0  0  0  0
  1  2  1  0
  2 28  1  0
  2  3  1  0
  3  4  2  0
  4  5  1  0
  5  6  1  0
  6 11  1  0
  6  7  2  0
  7  8  1  0
  8  9  2  0
  9 10  1  0
 10 11  2  0
 10 12  1  0
 12 18  1  0
 12 13  1  0
 13 14  1  0
 14 19  1  0
 14 15  1  0
 15 16  1  0
 16 17  1  0
 17 18  1  0
 17 19  1  0
 19 20  1  0
 20 21  2  0
 20 22  1  0
 22 24  1  0
 22 23  1  0
 23 24  1  0
 24 25  1  0
 24 26  1  0
  4 27  1  0
 27 28  2  0
M  END
>  <SMILES>  (22) 
Cn1cc(Nc2nccc(N3CC4CCC(C3)N4C(=O)C3CC3(F)F)n2)cn1

>  <CollectionName>  (22) 
emolecules

>  <LOG PLASMA PROTEIN BINDING (RAT) (% unbound)>  (22) 
1.78641244084

>  <Internal ID>  (22) 
Mol22

>  <Source>  (22) 
Biogen

$$$$
316756775
     RDKit          2D

 34 37  0  0  0  0  0  0  0  0999 V2000
    7.9718    2.8391    0.0000 H   0  0  0  0  0  0  0  0  0  0  0  0
    7.1448    2.8391    0.0000 C   0  0  0  0  0  0  0  0  0  0  0  0
    7.1448    3.6661    0.0000 H   0  0  0  0  0  0  0  0  0  0  0  0
    6.3178    2.8391    0.0000 H   0  0  0  0  0  0  0  0  0  0  0  0
    7.1448    2.0121    0.0000 N   0  0  0  0  0  0  0  0  0  0  0  0
    6.4286    1.5986    0.0000 C   0  0  0  0  0  0  0  0  0  0  0  0
    5.7124    2.0121    0.0000 O   0  0  0  0  0  0  0  0  0  0  0  0
    6.4286    0.7716    0.0000 C   0  0  0  0  0  0  0  0  0  0  0  0
    7.1448    0.3581    0.0000 N   0  0  0  0  0  0  0  0  0  0  0  0
    7.1448   -0.4689    0.0000 N   0  0  0  0  0  0  0  0  0  0  0  0
    6.4286   -0.8824    0.0000 C   0  0  0  0  0  0  0  0  0  0  0  0
    6.4286   -1.7094    0.0000 N   0  0  0  0  0  0  0  0  0  0  0  0
    7.1448   -2.1229    0.0000 C   0  0  0  0  0  0  0  0  0  0  0  0
    7.8610   -1.7094    0.0000 O   0  0  0  0  0  0  0  0  0  0  0  0
    7.1448   -2.9499    0.0000 C   0  0  0  0  0  0  0  0  0  0  0  0
    6.7313   -3.6661    0.0000 C   0  0  0  0  0  0  0  0  0  0  0  0
    7.5583   -3.6661    0.0000 C   0  0  0  0  0  0  0  0  0  0  0  0
    5.7124   -0.4689    0.0000 C   0  0  0  0  0  0  0  0  0  0  0  0
    5.7124    0.3581    0.0000 C   0  0  0  0  0  0  0  0  0  0  0  0
    4.9962    0.7716    0.0000 N   0  0  0  0  0  0  0  0  0  0  0  0
    4.2800    0.3581    0.0000 C   0  0  0  0  0  0  0  0  0  0  0  0
    4.2800   -0.4689    0.0000 C   0  0  0  0  0  0  0  0  0  0  0  0
    3.5637   -0.8824    0.0000 C   0  0  0  0  0  0  0  0  0  0  0  0
    2.8475   -0.4689    0.0000 C   0  0  0  0  0  0  0  0  0  0  0  0
    2.8475    0.3581    0.0000 C   0  0  0  0  0  0  0  0  0  0  0  0
    2.1313    0.7716    0.0000 C   0  0  0  0  0  0  0  0  0  0  0  0
    2.0449    1.5941    0.0000 N   0  0  0  0  0  0  0  0  0  0  0  0
    1.2360    1.7660    0.0000 C   0  0  0  0  0  0  0  0  0  0  0  0
    0.8225    1.0498    0.0000 N   0  0  0  0  0  0  0  0  0  0  0  0
    0.0000    0.9634    0.0000 C   0  0  0  0  0  0  0  0  0  0  0  0
    1.3758    0.4352    0.0000 N   0  0  0  0  0  0  0  0  0  0  0  0
    3.5637    0.7716    0.0000 C   0  0  0  0  0  0  0  0  0  0  0  0
    3.5637    1.5986    0.0000 O   0  0  0  0  0  0  0  0  0  0  0  0
    4.2800    2.0121    0.0000 C   0  0  0  0  0  0  0  0  0  0  0  0
  1  2  1  0
  2  3  1  0
  2  4  1  0
  2  5  1  0
  5  6  1  0
  6  7  2  0
  6  8  1  0
  8 19  2  0
  8  9  1  0
  9 10  2  0
 10 11  1  0
 11 12  1  0
 12 13  1  0
 13 14  2  0
 13 15  1  0
 15 17  1  0
 15 16  1  0
 16 17  1  0
 11 18  2  0
 18 19  1  0
 19 20  1  0
 20 21  1  0
 21 32  1  0
 21 22  2  0
 22 23  1  0
 23 24  2  0
 24 25  1  0
 25 26  1  0
 26 31  2  0
 26 27  1  0
 27 28  2  0
 28 29  1  0
 29 30  1  0
 29 31  1  0
 25 32  2  0
 32 33  1  0
 33 34  1  0
M  ISO  3   1   2   3   2   4   2
M  END
>  <SMILES>  (23) 
[2H]C([2H])([2H])NC(=O)c1nnc(NC(=O)C2CC2)cc1Nc1cccc(-c2ncn(C)n2)c1OC

>  <CollectionName>  (23) 
emolecules

>  <LOG PLASMA PROTEIN BINDING (RAT) (% unbound)>  (23) 
1.23657756537

>  <Internal ID>  (23) 
Mol23

>  <Source>  (23) 
Biogen

$$$$
114309331
     RDKit          2D

 32 35  0  0  0  0  0  0  0  0999 V2000
    4.9657    3.5794    0.0000 N   0  0  0  0  0  0  0  0  0  0  0  0
    5.3799    2.8635    0.0000 C   0  0  0  0  0  0  0  0  0  0  0  0
    6.2081    2.8635    0.0000 N   0  0  0  0  0  0  0  0  0  0  0  0
    6.6222    2.1477    0.0000 C   0  0  0  0  0  0  0  0  0  0  0  0
    6.2081    1.4319    0.0000 N   0  0  0  0  0  0  0  0  0  0  0  0
    5.3799    1.4319    0.0000 C   0  0  0  0  0  0  0  0  0  0  0  0
    4.9657    0.7160    0.0000 N   0  0  0  0  0  0  0  0  0  0  0  0
    5.3786   -0.0005    0.0000 C   0  0  0  0  0  0  0  0  0  0  0  0
    4.9645   -0.7164    0.0000 C   0  0  0  0  0  0  0  0  0  0  0  0
    4.1375   -0.7157    0.0000 C   0  0  0  0  0  0  0  0  0  0  0  0
    3.7234   -1.4315    0.0000 C   0  0  0  0  0  0  0  0  0  0  0  0
    4.1362   -2.1481    0.0000 N   0  0  0  0  0  0  0  0  0  0  0  0
    4.9632   -2.1488    0.0000 C   0  0  0  0  0  0  0  0  0  0  0  0
    5.3774   -1.4329    0.0000 C   0  0  0  0  0  0  0  0  0  0  0  0
    3.7221   -2.8639    0.0000 C   0  0  0  0  0  0  0  0  0  0  0  0
    2.8951   -2.8632    0.0000 O   0  0  0  0  0  0  0  0  0  0  0  0
    4.1350   -3.5805    0.0000 C   0  0  0  0  0  0  0  0  0  0  0  0
    3.7209   -4.2963    0.0000 C   0  0  0  0  0  0  0  0  0  0  0  0
    4.9657    2.1477    0.0000 C   0  0  0  0  0  0  0  0  0  0  0  0
    4.1375    2.1477    0.0000 C   0  0  0  0  0  0  0  0  0  0  0  0
    3.7234    1.4319    0.0000 C   0  0  0  0  0  0  0  0  0  0  0  0
    2.8951    1.4319    0.0000 C   0  0  0  0  0  0  0  0  0  0  0  0
    2.4810    2.1477    0.0000 C   0  0  0  0  0  0  0  0  0  0  0  0
    1.6540    2.1477    0.0000 O   0  0  0  0  0  0  0  0  0  0  0  0
    1.2405    2.8639    0.0000 C   0  0  0  0  0  0  0  0  0  0  0  0
    0.4135    2.8639    0.0000 C   0  0  0  0  0  0  0  0  0  0  0  0
    0.0000    3.5801    0.0000 C   0  0  0  0  0  0  0  0  0  0  0  0
    0.4135    4.2963    0.0000 C   0  0  0  0  0  0  0  0  0  0  0  0
    1.2405    4.2963    0.0000 C   0  0  0  0  0  0  0  0  0  0  0  0
    1.6540    3.5801    0.0000 C   0  0  0  0  0  0  0  0  0  0  0  0
    2.8951    2.8635    0.0000 C   0  0  0  0  0  0  0  0  0  0  0  0
    3.7234    2.8635    0.0000 C   0  0  0  0  0  0  0  0  0  0  0  0
  1  2  1  0
  2 19  2  0
  2  3  1  0
  3  4  2  0
  4  5  1  0
  5  6  2  0
  6  7  1  0
  7  8  1  0
  8  9  1  0
  9 14  1  0
  9 10  1  0
 10 11  1  0
 11 12  1  0
 12 13  1  0
 13 14  1  0
 12 15  1  0
 15 16  2  0
 15 17  1  0
 17 18  2  0
  6 19  1  0
 19 20  1  0
 20 32  1  0
 20 21  2  0
 21 22  1  0
 22 23  2  0
 23 24  1  0
 24 25  1  0
 25 30  1  0
 25 26  2  0
 26 27  1  0
 27 28  2  0
 28 29  1  0
 29 30  2  0
 23 31  1  0
 31 32  2  0
M  END
>  <SMILES>  (24) 
C=CC(=O)N1CCC(CNc2ncnc(N)c2-c2ccc(Oc3ccccc3)cc2)CC1

>  <CollectionName>  (24) 
emolecules

>  <LOG PLASMA PROTEIN BINDING (RAT) (% unbound)>  (24) 
0.901294817166

>  <Internal ID>  (24) 
Mol24

>  <Source>  (24) 
Biogen

$$$$
53744933
     RDKit          2D

 31 34  0  0  0  0  0  0  0  0999 V2000
    0.0000   -0.5953    0.0000 N   0  0  0  0  0  0  0  0  0  0  0  0
    0.4873    0.0729    0.0000 C   0  0  0  0  0  0  0  0  0  0  0  0
    0.2337    0.8574    0.0000 N   0  0  0  0  0  0  0  0  0  0  0  0
    0.9002    1.3470    0.0000 N   0  0  0  0  0  0  0  0  0  0  0  0
    1.5667    0.8574    0.0000 C   0  0  0  0  0  0  0  0  0  0  0  0
    1.3131    0.0729    0.0000 C   0  0  0  0  0  0  0  0  0  0  0  0
    1.8004   -0.5953    0.0000 C   0  0  0  0  0  0  0  0  0  0  0  0
    1.4654   -1.3514    0.0000 C   0  0  0  0  0  0  0  0  0  0  0  0
    1.9527   -2.0195    0.0000 C   0  0  0  0  0  0  0  0  0  0  0  0
    1.6177   -2.7757    0.0000 Cl  0  0  0  0  0  0  0  0  0  0  0  0
    2.7750   -1.9316    0.0000 C   0  0  0  0  0  0  0  0  0  0  0  0
    3.1100   -1.1755    0.0000 C   0  0  0  0  0  0  0  0  0  0  0  0
    2.6227   -0.5073    0.0000 C   0  0  0  0  0  0  0  0  0  0  0  0
    2.9577    0.2488    0.0000 O   0  0  0  0  0  0  0  0  0  0  0  0
    3.7800    0.3367    0.0000 C   0  0  0  0  0  0  0  0  0  0  0  0
    4.2673   -0.3314    0.0000 C   0  0  0  0  0  0  0  0  0  0  0  0
    5.0897   -0.2435    0.0000 C   0  0  0  0  0  0  0  0  0  0  0  0
    5.5770   -0.9117    0.0000 F   0  0  0  0  0  0  0  0  0  0  0  0
    5.4246    0.5126    0.0000 C   0  0  0  0  0  0  0  0  0  0  0  0
    4.9373    1.1808    0.0000 C   0  0  0  0  0  0  0  0  0  0  0  0
    4.1150    1.0929    0.0000 C   0  0  0  0  0  0  0  0  0  0  0  0
    3.6277    1.7610    0.0000 Cl  0  0  0  0  0  0  0  0  0  0  0  0
    6.2470    0.6006    0.0000 S   0  0  0  0  0  0  0  0  0  0  0  0
    6.3349   -0.2217    0.0000 O   0  0  0  0  0  0  0  0  0  0  0  0
    6.1590    1.4229    0.0000 O   0  0  0  0  0  0  0  0  0  0  0  0
    7.0693    0.6885    0.0000 N   0  0  0  0  0  0  0  0  0  0  0  0
    7.4043    1.4446    0.0000 C   0  0  0  0  0  0  0  0  0  0  0  0
    8.2129    1.6180    0.0000 C   0  0  0  0  0  0  0  0  0  0  0  0
    8.2978    2.4407    0.0000 S   0  0  0  0  0  0  0  0  0  0  0  0
    7.5417    2.7757    0.0000 C   0  0  0  0  0  0  0  0  0  0  0  0
    6.9895    2.1601    0.0000 N   0  0  0  0  0  0  0  0  0  0  0  0
  1  2  1  0
  2  6  1  0
  2  3  2  0
  3  4  1  0
  4  5  1  0
  5  6  2  0
  6  7  1  0
  7 13  1  0
  7  8  2  0
  8  9  1  0
  9 10  1  0
  9 11  2  0
 11 12  1  0
 12 13  2  0
 13 14  1  0
 14 15  1  0
 15 21  1  0
 15 16  2  0
 16 17  1  0
 17 18  1  0
 17 19  2  0
 19 20  1  0
 20 21  2  0
 21 22  1  0
 19 23  1  0
 23 24  2  0
 23 25  2  0
 23 26  1  0
 26 27  1  0
 27 31  1  0
 27 28  2  0
 28 29  1  0
 29 30  1  0
 30 31  2  0
M  END
>  <SMILES>  (25) 
Nc1n[nH]cc1-c1cc(Cl)ccc1Oc1cc(F)c(S(=O)(=O)Nc2cscn2)cc1Cl

>  <CollectionName>  (25) 
emolecules

>  <LOG PLASMA PROTEIN BINDING (RAT) (% unbound)>  (25) 
-0.0824944904475

>  <Internal ID>  (25) 
Mol25

>  <Source>  (25) 
Biogen

$$$$
207623013
     RDKit          2D

 42 47  0  0  0  0  0  0  0  0999 V2000
    1.9697    0.0822    0.0000 C   0  0  0  0  0  0  0  0  0  0  0  0
    2.7780   -0.0927    0.0000 C   0  0  0  0  0  0  0  0  0  0  0  0
    3.3336    0.5199    0.0000 C   0  0  0  0  0  0  0  0  0  0  0  0
    4.1419    0.3450    0.0000 C   0  0  0  0  0  0  0  0  0  0  0  0
    4.3946   -0.4424    0.0000 C   0  0  0  0  0  0  0  0  0  0  0  0
    3.8390   -1.0550    0.0000 C   0  0  0  0  0  0  0  0  0  0  0  0
    3.0307   -0.8801    0.0000 C   0  0  0  0  0  0  0  0  0  0  0  0
    2.4751   -1.4927    0.0000 N   0  0  0  0  0  0  0  0  0  0  0  0
    1.6668   -1.3178    0.0000 C   0  0  0  0  0  0  0  0  0  0  0  0
    1.4141   -0.5303    0.0000 O   0  0  0  0  0  0  0  0  0  0  0  0
    1.1112   -1.9303    0.0000 N   0  0  0  0  0  0  0  0  0  0  0  0
    0.3029   -1.7555    0.0000 C   0  0  0  0  0  0  0  0  0  0  0  0
    1.3639   -2.7178    0.0000 C   0  0  0  0  0  0  0  0  0  0  0  0
    0.8083   -3.3304    0.0000 C   0  0  0  0  0  0  0  0  0  0  0  0
    0.0000   -3.1555    0.0000 F   0  0  0  0  0  0  0  0  0  0  0  0
    1.0610   -4.1178    0.0000 C   0  0  0  0  0  0  0  0  0  0  0  0
    1.8693   -4.2927    0.0000 C   0  0  0  0  0  0  0  0  0  0  0  0
    2.4249   -3.6801    0.0000 C   0  0  0  0  0  0  0  0  0  0  0  0
    2.1722   -2.8927    0.0000 C   0  0  0  0  0  0  0  0  0  0  0  0
    2.7278   -2.2801    0.0000 C   0  0  0  0  0  0  0  0  0  0  0  0
    3.5361   -2.4550    0.0000 O   0  0  0  0  0  0  0  0  0  0  0  0
    3.0810    1.3073    0.0000 C   0  0  0  0  0  0  0  0  0  0  0  0
    2.2689    1.4852    0.0000 C   0  0  0  0  0  0  0  0  0  0  0  0
    1.7114    0.8743    0.0000 F   0  0  0  0  0  0  0  0  0  0  0  0
    2.0140    2.2735    0.0000 C   0  0  0  0  0  0  0  0  0  0  0  0
    2.5653    2.8900    0.0000 C   0  0  0  0  0  0  0  0  0  0  0  0
    2.3055    3.6752    0.0000 C   0  0  0  0  0  0  0  0  0  0  0  0
    2.8556    4.2927    0.0000 N   0  0  0  0  0  0  0  0  0  0  0  0
    1.4957    3.8428    0.0000 O   0  0  0  0  0  0  0  0  0  0  0  0
    3.3773    2.7181    0.0000 C   0  0  0  0  0  0  0  0  0  0  0  0
    4.0531    3.2042    0.0000 N   0  0  0  0  0  0  0  0  0  0  0  0
    4.7229    2.7181    0.0000 C   0  0  0  0  0  0  0  0  0  0  0  0
    5.5350    2.8900    0.0000 C   0  0  0  0  0  0  0  0  0  0  0  0
    6.0862    2.2735    0.0000 C   0  0  0  0  0  0  0  0  0  0  0  0
    5.8314    1.4852    0.0000 C   0  0  0  0  0  0  0  0  0  0  0  0
    5.0193    1.3073    0.0000 C   0  0  0  0  0  0  0  0  0  0  0  0
    4.4680    1.9238    0.0000 C   0  0  0  0  0  0  0  0  0  0  0  0
    3.6381    1.9238    0.0000 C   0  0  0  0  0  0  0  0  0  0  0  0
    6.8951    2.4460    0.0000 C   0  0  0  0  0  0  0  0  0  0  0  0
    7.0675    1.6372    0.0000 C   0  0  0  0  0  0  0  0  0  0  0  0
    7.7039    2.6185    0.0000 C   0  0  0  0  0  0  0  0  0  0  0  0
    6.7226    3.2548    0.0000 O   0  0  0  0  0  0  0  0  0  0  0  0
  1  2  1  0
  2  7  2  0
  2  3  1  0
  3  4  2  0
  4  5  1  0
  5  6  2  0
  6  7  1  0
  7  8  1  0
  8 20  1  0
  8  9  1  0
  9 10  2  0
  9 11  1  0
 11 12  1  0
 11 13  1  0
 13 19  2  0
 13 14  1  0
 14 15  1  0
 14 16  2  0
 16 17  1  0
 17 18  2  0
 18 19  1  0
 19 20  1  0
 20 21  2  0
  3 22  1  0
 22 38  1  0
 22 23  2  0
 23 24  1  0
 23 25  1  0
 25 26  2  0
 26 27  1  0
 27 28  1  0
 27 29  2  0
 26 30  1  0
 30 38  2  0
 30 31  1  0
 31 32  1  0
 32 37  2  0
 32 33  1  0
 33 34  1  0
 34 35  1  0
 35 36  1  0
 36 37  1  0
 37 38  1  0
 34 39  1  0
 39 40  1  0
 39 41  1  0
 39 42  1  0
M  END
>  <SMILES>  (26) 
Cc1c(-c2c(F)cc(C(N)=O)c3[nH]c4c(c23)CCC(C(C)(C)O)C4)cccc1-n1c(=O)c2cccc(F)c2n(C)c1=O

>  <CollectionName>  (26) 
emolecules

>  <LOG PLASMA PROTEIN BINDING (RAT) (% unbound)>  (26) 
0.326540668517

>  <Internal ID>  (26) 
Mol26

>  <Source>  (26) 
Biogen

$$$$
324038090
     RDKit          2D

 29 33  0  0  1  0  0  0  0  0999 V2000
    0.0784    4.3836    0.0000 C   0  0  0  0  0  0  0  0  0  0  0  0
    0.4141    3.6279    0.0000 N   0  0  0  0  0  0  0  0  0  0  0  0
    1.2229    3.4552    0.0000 C   0  0  0  0  0  0  0  0  0  0  0  0
    1.3086    2.6327    0.0000 C   0  0  0  0  0  0  0  0  0  0  0  0
    0.5528    2.2969    0.0000 C   0  0  0  0  0  0  0  0  0  0  0  0
    0.0000    2.9120    0.0000 N   0  0  0  0  0  0  0  0  0  0  0  0
    2.0245    2.2185    0.0000 C   0  0  0  0  0  0  0  0  0  0  0  0
    2.7403    2.6327    0.0000 C   0  0  0  0  0  0  0  0  0  0  0  0
    3.4562    2.2185    0.0000 N   0  0  0  0  0  0  0  0  0  0  0  0
    4.2430    2.4729    0.0000 N   0  0  0  0  0  0  0  0  0  0  0  0
    4.7340    1.8044    0.0000 C   0  0  0  0  0  0  0  0  0  0  0  0
    4.2430    1.1359    0.0000 C   0  0  0  0  0  0  0  0  0  0  0  0
    3.4562    1.3903    0.0000 C   0  0  0  0  0  0  0  0  0  0  0  0
    2.7403    0.9762    0.0000 C   0  0  0  0  0  0  0  0  0  0  0  0
    2.0245    1.3903    0.0000 N   0  0  0  0  0  0  0  0  0  0  0  0
    2.7403    0.1492    0.0000 C   0  0  0  0  0  0  0  0  0  0  0  0
    3.4094   -0.3369    0.0000 C   0  0  0  0  0  0  0  0  0  0  0  0
    3.1538   -1.1235    0.0000 N   0  0  0  0  0  0  0  0  0  0  0  0
    2.3268   -1.1235    0.0000 N   0  0  0  0  0  0  0  0  0  0  0  0
    2.0713   -0.3369    0.0000 C   0  0  0  0  0  0  0  0  0  0  0  0
    1.8407   -1.7925    0.0000 C   0  0  0  0  0  0  0  0  0  0  0  0
    2.6575   -1.6631    0.0000 C   0  0  0  0  0  0  0  0  0  0  0  0
    3.1780   -2.3058    0.0000 C   0  0  0  0  0  0  0  0  0  0  0  0
    3.6984   -2.9485    0.0000 N   0  0  0  0  0  0  0  0  0  0  0  0
    1.9701   -2.6093    0.0000 C   0  0  0  0  0  0  0  0  0  0  0  0
    1.1533   -2.7387    0.0000 C   0  0  0  0  0  0  0  0  0  0  0  0
    1.0239   -1.9219    0.0000 C   0  0  0  0  0  0  0  0  0  0  0  0
    1.0668   -3.5612    0.0000 C   0  0  0  0  0  0  0  0  0  0  0  0
    0.9804   -4.3836    0.0000 N   0  0  0  0  0  0  0  0  0  0  0  0
  1  2  1  0
  2  6  1  0
  2  3  1  0
  3  4  2  0
  4  5  1  0
  5  6  2  0
  4  7  1  0
  7 15  1  0
  7  8  2  0
  8  9  1  0
  9 13  1  0
  9 10  1  0
 10 11  2  0
 11 12  1  0
 12 13  2  0
 13 14  1  0
 14 15  2  0
 14 16  1  0
 16 20  2  0
 16 17  1  0
 17 18  2  0
 18 19  1  0
 19 20  1  0
 21 19  1  0
 21 27  1  0
 21 22  1  6
 22 23  1  0
 23 24  3  0
 21 25  1  0
 25 26  1  0
 26 27  1  0
 26 28  1  6
 28 29  3  0
M  END
>  <SMILES>  (27) 
Cn1cc(-c2cn3nccc3c(-c3cnn([C@]4(CC#N)C[C@@H](C#N)C4)c3)n2)cn1

>  <CollectionName>  (27) 
emolecules

>  <LOG PLASMA PROTEIN BINDING (RAT) (% unbound)>  (27) 
1.36410052131

>  <Internal ID>  (27) 
Mol27

>  <Source>  (27) 
Biogen

$$$$
322748925
     RDKit          2D

 21 23  0  0  0  0  0  0  0  0999 V2000
   -1.5026    2.1486    0.0000 O   0  0  0  0  0  0  0  0  0  0  0  0
   -1.9161    1.4324    0.0000 C   0  0  0  0  0  0  0  0  0  0  0  0
   -1.5026    0.7162    0.0000 N   0  0  0  0  0  0  0  0  0  0  0  0
   -0.6756    0.7162    0.0000 C   0  0  0  0  0  0  0  0  0  0  0  0
   -0.2621    1.4324    0.0000 C   0  0  0  0  0  0  0  0  0  0  0  0
    0.5649    1.4324    0.0000 C   0  0  0  0  0  0  0  0  0  0  0  0
    0.9784    0.7162    0.0000 C   0  0  0  0  0  0  0  0  0  0  0  0
    0.5649   -0.0000    0.0000 C   0  0  0  0  0  0  0  0  0  0  0  0
   -0.2621    0.0000    0.0000 N   0  0  0  0  0  0  0  0  0  0  0  0
    0.9784    2.1486    0.0000 C   0  0  0  0  0  0  0  0  0  0  0  0
    0.5649    2.8648    0.0000 O   0  0  0  0  0  0  0  0  0  0  0  0
    1.8054    2.1486    0.0000 N   0  0  0  0  0  0  0  0  0  0  0  0
    2.2189    2.8648    0.0000 C   0  0  0  0  0  0  0  0  0  0  0  0
    1.8054    3.5810    0.0000 C   0  0  0  0  0  0  0  0  0  0  0  0
    2.2189    4.2972    0.0000 C   0  0  0  0  0  0  0  0  0  0  0  0
    3.0459    4.2972    0.0000 C   0  0  0  0  0  0  0  0  0  0  0  0
    3.4594    3.5810    0.0000 N   0  0  0  0  0  0  0  0  0  0  0  0
    3.0459    2.8648    0.0000 C   0  0  0  0  0  0  0  0  0  0  0  0
   -2.7431    1.4324    0.0000 C   0  0  0  0  0  0  0  0  0  0  0  0
   -3.4594    1.0189    0.0000 C   0  0  0  0  0  0  0  0  0  0  0  0
   -3.4594    1.8459    0.0000 C   0  0  0  0  0  0  0  0  0  0  0  0
  1  2  2  0
  2  3  1  0
  3  4  1  0
  4  9  1  0
  4  5  2  0
  5  6  1  0
  6  7  2  0
  7  8  1  0
  8  9  2  0
  6 10  1  0
 10 11  2  0
 10 12  1  0
 12 13  1  0
 13 18  1  0
 13 14  2  0
 14 15  1  0
 15 16  2  0
 16 17  1  0
 17 18  2  0
  2 19  1  0
 19 21  1  0
 19 20  1  0
 20 21  1  0
M  END
>  <SMILES>  (28) 
O=C(Nc1cccnc1)c1ccnc(NC(=O)C2CC2)c1

>  <CollectionName>  (28) 
emolecules

>  <LOG PLASMA PROTEIN BINDING (RAT) (% unbound)>  (28) 
1.61528706275

>  <Internal ID>  (28) 
Mol28

>  <Source>  (28) 
Biogen

$$$$
316162153
     RDKit          2D

 34 38  0  0  1  0  0  0  0  0999 V2000
    0.0000   -2.2201    0.0000 O   0  0  0  0  0  0  0  0  0  0  0  0
    0.8270   -2.2201    0.0000 C   0  0  0  0  0  0  0  0  0  0  0  0
    1.2405   -1.5039    0.0000 C   0  0  0  0  0  0  0  0  0  0  0  0
    1.2405   -0.6769    0.0000 C   0  0  0  0  0  0  0  0  0  0  0  0
    1.9567   -0.2634    0.0000 C   0  0  0  0  0  0  0  0  0  0  0  0
    2.6729   -0.6769    0.0000 C   0  0  0  0  0  0  0  0  0  0  0  0
    2.6729   -1.5039    0.0000 C   0  0  0  0  0  0  0  0  0  0  0  0
    1.9567   -1.9174    0.0000 O   0  0  0  0  0  0  0  0  0  0  0  0
    3.3891   -0.2634    0.0000 N   0  0  0  0  0  0  0  0  0  0  0  0
    3.3891    0.5636    0.0000 C   0  0  0  0  0  0  0  0  0  0  0  0
    2.6733    0.9777    0.0000 N   0  0  0  0  0  0  0  0  0  0  0  0
    2.6733    1.8060    0.0000 C   0  0  0  0  0  0  0  0  0  0  0  0
    3.3891    2.2201    0.0000 N   0  0  0  0  0  0  0  0  0  0  0  0
    4.1049    1.8060    0.0000 C   0  0  0  0  0  0  0  0  0  0  0  0
    4.8918    2.0604    0.0000 N   0  0  0  0  0  0  0  0  0  0  0  0
    5.3828    1.3919    0.0000 C   0  0  0  0  0  0  0  0  0  0  0  0
    4.8918    0.7233    0.0000 C   0  0  0  0  0  0  0  0  0  0  0  0
    5.1442   -0.0642    0.0000 C   0  0  0  0  0  0  0  0  0  0  0  0
    4.5884   -0.6766    0.0000 O   0  0  0  0  0  0  0  0  0  0  0  0
    5.9524   -0.2394    0.0000 C   0  0  0  0  0  0  0  0  0  0  0  0
    6.5083    0.3730    0.0000 C   0  0  0  0  0  0  0  0  0  0  0  0
    7.3165    0.1978    0.0000 C   0  0  0  0  0  0  0  0  0  0  0  0
    7.5689   -0.5897    0.0000 C   0  0  0  0  0  0  0  0  0  0  0  0
    8.3771   -0.7649    0.0000 O   0  0  0  0  0  0  0  0  0  0  0  0
    8.9330   -0.1525    0.0000 C   0  0  0  0  0  0  0  0  0  0  0  0
    8.6806    0.6350    0.0000 C   0  0  0  0  0  0  0  0  0  0  0  0
    9.2364    1.2474    0.0000 C   0  0  0  0  0  0  0  0  0  0  0  0
   10.0446    1.0722    0.0000 C   0  0  0  0  0  0  0  0  0  0  0  0
   10.2970    0.2847    0.0000 C   0  0  0  0  0  0  0  0  0  0  0  0
    9.7412   -0.3277    0.0000 C   0  0  0  0  0  0  0  0  0  0  0  0
    7.0131   -1.2021    0.0000 C   0  0  0  0  0  0  0  0  0  0  0  0
    6.2049   -1.0269    0.0000 C   0  0  0  0  0  0  0  0  0  0  0  0
    5.6490   -1.6393    0.0000 Cl  0  0  0  0  0  0  0  0  0  0  0  0
    4.1049    0.9777    0.0000 C   0  0  0  0  0  0  0  0  0  0  0  0
  1  2  1  0
  3  2  1  6
  3  8  1  0
  3  4  1  0
  4  5  1  0
  5  6  1  0
  6  7  1  0
  7  8  1  0
  6  9  1  1
  9 10  1  0
 10 34  1  0
 10 11  2  0
 11 12  1  0
 12 13  2  0
 13 14  1  0
 14 34  2  0
 14 15  1  0
 15 16  1  0
 16 17  2  0
 17 18  1  0
 18 19  2  0
 18 20  1  0
 20 32  1  0
 20 21  2  0
 21 22  1  0
 22 23  2  0
 23 24  1  0
 24 25  1  0
 25 30  1  0
 25 26  2  0
 26 27  1  0
 27 28  2  0
 28 29  1  0
 29 30  2  0
 23 31  1  0
 31 32  2  0
 32 33  1  0
 17 34  1  0
M  END
>  <SMILES>  (29) 
O=C(c1ccc(Oc2ccccc2)cc1Cl)c1c[nH]c2ncnc(N[C@@H]3CC[C@@H](CO)OC3)c12

>  <CollectionName>  (29) 
emolecules

>  <LOG PLASMA PROTEIN BINDING (RAT) (% unbound)>  (29) 
-0.29584948316

>  <Internal ID>  (29) 
Mol29

>  <Source>  (29) 
Biogen

$$$$
36557633
     RDKit          2D

 23 26  0  0  1  0  0  0  0  0999 V2000
    2.0648   -3.2781    0.0000 N   0  0  0  0  0  0  0  0  0  0  0  0
    2.1513   -2.4556    0.0000 C   0  0  0  0  0  0  0  0  0  0  0  0
    2.2377   -1.6332    0.0000 C   0  0  0  0  0  0  0  0  0  0  0  0
    1.5687   -1.1471    0.0000 C   0  0  0  0  0  0  0  0  0  0  0  0
    1.0826   -1.8161    0.0000 C   0  0  0  0  0  0  0  0  0  0  0  0
    1.3381   -2.6026    0.0000 C   0  0  0  0  0  0  0  0  0  0  0  0
    0.6691   -3.0888    0.0000 C   0  0  0  0  0  0  0  0  0  0  0  0
    0.0000   -2.6027    0.0000 C   0  0  0  0  0  0  0  0  0  0  0  0
    0.2556   -1.8161    0.0000 C   0  0  0  0  0  0  0  0  0  0  0  0
    2.0548   -0.4780    0.0000 N   0  0  0  0  0  0  0  0  0  0  0  0
    1.7992    0.3085    0.0000 C   0  0  0  0  0  0  0  0  0  0  0  0
    2.4683    0.7946    0.0000 C   0  0  0  0  0  0  0  0  0  0  0  0
    3.1373    0.3085    0.0000 C   0  0  0  0  0  0  0  0  0  0  0  0
    2.8818   -0.4780    0.0000 N   0  0  0  0  0  0  0  0  0  0  0  0
    2.4683    1.6216    0.0000 C   0  0  0  0  0  0  0  0  0  0  0  0
    1.7524    2.0357    0.0000 N   0  0  0  0  0  0  0  0  0  0  0  0
    1.7524    2.8640    0.0000 C   0  0  0  0  0  0  0  0  0  0  0  0
    2.4683    3.2781    0.0000 N   0  0  0  0  0  0  0  0  0  0  0  0
    3.1841    2.8640    0.0000 C   0  0  0  0  0  0  0  0  0  0  0  0
    3.9709    3.1184    0.0000 N   0  0  0  0  0  0  0  0  0  0  0  0
    4.4620    2.4499    0.0000 C   0  0  0  0  0  0  0  0  0  0  0  0
    3.9709    1.7813    0.0000 C   0  0  0  0  0  0  0  0  0  0  0  0
    3.1841    2.0357    0.0000 C   0  0  0  0  0  0  0  0  0  0  0  0
  1  2  3  0
  2  3  1  0
  4  3  1  1
  4  5  1  0
  5  9  1  0
  5  6  1  0
  6  7  1  0
  7  8  1  0
  8  9  1  0
  4 10  1  0
 10 14  1  0
 10 11  1  0
 11 12  2  0
 12 13  1  0
 13 14  2  0
 12 15  1  0
 15 23  1  0
 15 16  2  0
 16 17  1  0
 17 18  2  0
 18 19  1  0
 19 23  2  0
 19 20  1  0
 20 21  1  0
 21 22  2  0
 22 23  1  0
M  END
>  <SMILES>  (30) 
N#CC[C@H](C1CCCC1)n1cc(-c2ncnc3[nH]ccc23)cn1

>  <CollectionName>  (30) 
emolecules

>  <LOG PLASMA PROTEIN BINDING (RAT) (% unbound)>  (30) 
1.24459870133

>  <Internal ID>  (30) 
Mol30

>  <Source>  (30) 
Biogen

$$$$
1447149
     RDKit          2D

 22 24  0  0  0  0  0  0  0  0999 V2000
    1.1300    2.2209    0.0000 C   0  0  0  0  0  0  0  0  0  0  0  0
    0.7158    1.5050    0.0000 C   0  0  0  0  0  0  0  0  0  0  0  0
    0.0000    1.9191    0.0000 C   0  0  0  0  0  0  0  0  0  0  0  0
    0.3017    0.7892    0.0000 C   0  0  0  0  0  0  0  0  0  0  0  0
    1.4317    1.0909    0.0000 C   0  0  0  0  0  0  0  0  0  0  0  0
    2.1482    1.5038    0.0000 C   0  0  0  0  0  0  0  0  0  0  0  0
    2.8641    1.0896    0.0000 C   0  0  0  0  0  0  0  0  0  0  0  0
    2.8634    0.2626    0.0000 C   0  0  0  0  0  0  0  0  0  0  0  0
    2.1468   -0.1502    0.0000 C   0  0  0  0  0  0  0  0  0  0  0  0
    1.4310    0.2639    0.0000 C   0  0  0  0  0  0  0  0  0  0  0  0
    3.5792   -0.1515    0.0000 C   0  0  0  0  0  0  0  0  0  0  0  0
    4.2951    0.2626    0.0000 N   0  0  0  0  0  0  0  0  0  0  0  0
    5.0109   -0.1515    0.0000 C   0  0  0  0  0  0  0  0  0  0  0  0
    5.7977    0.1029    0.0000 S   0  0  0  0  0  0  0  0  0  0  0  0
    6.2888   -0.5656    0.0000 C   0  0  0  0  0  0  0  0  0  0  0  0
    5.7977   -1.2341    0.0000 C   0  0  0  0  0  0  0  0  0  0  0  0
    5.0109   -0.9797    0.0000 N   0  0  0  0  0  0  0  0  0  0  0  0
    4.2951   -1.3939    0.0000 C   0  0  0  0  0  0  0  0  0  0  0  0
    4.2951   -2.2209    0.0000 O   0  0  0  0  0  0  0  0  0  0  0  0
    3.5792   -0.9797    0.0000 C   0  0  0  0  0  0  0  0  0  0  0  0
    2.8634   -1.3939    0.0000 C   0  0  0  0  0  0  0  0  0  0  0  0
    2.1475   -1.8080    0.0000 N   0  0  0  0  0  0  0  0  0  0  0  0
  1  2  1  0
  2  3  1  0
  2  4  1  0
  2  5  1  0
  5 10  2  0
  5  6  1  0
  6  7  2  0
  7  8  1  0
  8  9  2  0
  9 10  1  0
  8 11  1  0
 11 20  2  0
 11 12  1  0
 12 13  2  0
 13 17  1  0
 13 14  1  0
 14 15  1  0
 15 16  1  0
 16 17  1  0
 17 18  1  0
 18 19  2  0
 18 20  1  0
 20 21  1  0
 21 22  3  0
M  END
>  <SMILES>  (31) 
CC(C)(C)c1ccc(-c2nc3n(c(=O)c2C#N)CCS3)cc1

>  <CollectionName>  (31) 
emolecules

>  <LOG PLASMA PROTEIN BINDING (RAT) (% unbound)>  (31) 
0.455758203104

>  <Internal ID>  (31) 
Mol31

>  <Source>  (31) 
Biogen

$$$$
75542235
     RDKit          2D

 35 39  0  0  0  0  0  0  0  0999 V2000
    1.4382   -6.2037    0.0000 C   0  0  0  0  0  0  0  0  0  0  0  0
    1.4374   -5.3767    0.0000 N   0  0  0  0  0  0  0  0  0  0  0  0
    2.1533   -4.9626    0.0000 C   0  0  0  0  0  0  0  0  0  0  0  0
    2.1526   -4.1356    0.0000 C   0  0  0  0  0  0  0  0  0  0  0  0
    1.4360   -3.7227    0.0000 N   0  0  0  0  0  0  0  0  0  0  0  0
    0.7202   -4.1369    0.0000 C   0  0  0  0  0  0  0  0  0  0  0  0
    0.7209   -4.9639    0.0000 C   0  0  0  0  0  0  0  0  0  0  0  0
    1.4353   -2.8957    0.0000 C   0  0  0  0  0  0  0  0  0  0  0  0
    0.7187   -2.4829    0.0000 C   0  0  0  0  0  0  0  0  0  0  0  0
    0.7180   -1.6559    0.0000 C   0  0  0  0  0  0  0  0  0  0  0  0
    1.4338   -1.2417    0.0000 C   0  0  0  0  0  0  0  0  0  0  0  0
    1.4331   -0.4147    0.0000 N   0  0  0  0  0  0  0  0  0  0  0  0
    2.1490   -0.0006    0.0000 C   0  0  0  0  0  0  0  0  0  0  0  0
    2.1490    0.8276    0.0000 N   0  0  0  0  0  0  0  0  0  0  0  0
    2.8648    1.2417    0.0000 C   0  0  0  0  0  0  0  0  0  0  0  0
    2.8648    2.0687    0.0000 O   0  0  0  0  0  0  0  0  0  0  0  0
    2.1486    2.4822    0.0000 C   0  0  0  0  0  0  0  0  0  0  0  0
    1.4324    2.0687    0.0000 C   0  0  0  0  0  0  0  0  0  0  0  0
    0.7162    2.4822    0.0000 C   0  0  0  0  0  0  0  0  0  0  0  0
    0.7162    3.3092    0.0000 C   0  0  0  0  0  0  0  0  0  0  0  0
    1.4324    3.7227    0.0000 C   0  0  0  0  0  0  0  0  0  0  0  0
    1.4324    4.5497    0.0000 N   0  0  0  0  0  0  0  0  0  0  0  0
    0.7162    4.9632    0.0000 C   0  0  0  0  0  0  0  0  0  0  0  0
    0.0000    4.5497    0.0000 O   0  0  0  0  0  0  0  0  0  0  0  0
    0.7162    5.7902    0.0000 C   0  0  0  0  0  0  0  0  0  0  0  0
    0.0000    6.2037    0.0000 C   0  0  0  0  0  0  0  0  0  0  0  0
    2.1486    3.3092    0.0000 C   0  0  0  0  0  0  0  0  0  0  0  0
    3.5807    0.8276    0.0000 C   0  0  0  0  0  0  0  0  0  0  0  0
    4.3675    1.0820    0.0000 S   0  0  0  0  0  0  0  0  0  0  0  0
    4.8585    0.4135    0.0000 C   0  0  0  0  0  0  0  0  0  0  0  0
    4.3675   -0.2550    0.0000 C   0  0  0  0  0  0  0  0  0  0  0  0
    3.5807   -0.0006    0.0000 C   0  0  0  0  0  0  0  0  0  0  0  0
    2.8648   -0.4147    0.0000 N   0  0  0  0  0  0  0  0  0  0  0  0
    2.1504   -1.6546    0.0000 C   0  0  0  0  0  0  0  0  0  0  0  0
    2.1511   -2.4816    0.0000 C   0  0  0  0  0  0  0  0  0  0  0  0
  1  2  1  0
  2  7  1  0
  2  3  1  0
  3  4  1  0
  4  5  1  0
  5  6  1  0
  6  7  1  0
  5  8  1  0
  8 35  1  0
  8  9  2  0
  9 10  1  0
 10 11  2  0
 11 12  1  0
 12 13  1  0
 13 33  1  0
 13 14  2  0
 14 15  1  0
 15 16  1  0
 16 17  1  0
 17 27  1  0
 17 18  2  0
 18 19  1  0
 19 20  2  0
 20 21  1  0
 21 22  1  0
 22 23  1  0
 23 24  2  0
 23 25  1  0
 25 26  2  0
 21 27  2  0
 15 28  2  0
 28 32  1  0
 28 29  1  0
 29 30  1  0
 30 31  2  0
 31 32  1  0
 32 33  2  0
 11 34  1  0
 34 35  2  0
M  END
>  <SMILES>  (32) 
C=CC(=O)Nc1cccc(Oc2nc(Nc3ccc(N4CCN(C)CC4)cc3)nc3ccsc23)c1

>  <CollectionName>  (32) 
emolecules

>  <LOG PLASMA PROTEIN BINDING (RAT) (% unbound)>  (32) 
-0.308918507877

>  <Internal ID>  (32) 
Mol32

>  <Source>  (32) 
Biogen

$$$$
LN01345100
     RDKit          2D

 34 38  0  0  1  0  0  0  0  0999 V2000
    3.8596    5.1933    0.0000 C   0  0  0  0  0  0  0  0  0  0  0  0
    3.3087    4.5765    0.0000 C   0  0  0  0  0  0  0  0  0  0  0  0
    2.7578    3.9597    0.0000 C   0  0  0  0  0  0  0  0  0  0  0  0
    2.2069    3.3429    0.0000 C   0  0  0  0  0  0  0  0  0  0  0  0
    1.3973    3.5116    0.0000 O   0  0  0  0  0  0  0  0  0  0  0  0
    2.4656    2.5574    0.0000 N   0  0  0  0  0  0  0  0  0  0  0  0
    3.2531    2.3050    0.0000 C   0  0  0  0  0  0  0  0  0  0  0  0
    3.2564    1.4780    0.0000 C   0  0  0  0  0  0  0  0  0  0  0  0
    2.4709    1.2193    0.0000 C   0  0  0  0  0  0  0  0  0  0  0  0
    2.2185    0.4318    0.0000 N   0  0  0  0  0  0  0  0  0  0  0  0
    2.7096   -0.2367    0.0000 C   0  0  0  0  0  0  0  0  0  0  0  0
    3.5366   -0.2367    0.0000 O   0  0  0  0  0  0  0  0  0  0  0  0
    2.2185   -0.9052    0.0000 N   0  0  0  0  0  0  0  0  0  0  0  0
    2.4709   -1.6928    0.0000 C   0  0  0  0  0  0  0  0  0  0  0  0
    1.9151   -2.3051    0.0000 C   0  0  0  0  0  0  0  0  0  0  0  0
    2.1675   -3.0927    0.0000 C   0  0  0  0  0  0  0  0  0  0  0  0
    2.9758   -3.2679    0.0000 C   0  0  0  0  0  0  0  0  0  0  0  0
    3.2282   -4.0554    0.0000 O   0  0  0  0  0  0  0  0  0  0  0  0
    4.0364   -4.2306    0.0000 C   0  0  0  0  0  0  0  0  0  0  0  0
    4.5922   -3.6182    0.0000 C   0  0  0  0  0  0  0  0  0  0  0  0
    5.4005   -3.7934    0.0000 C   0  0  0  0  0  0  0  0  0  0  0  0
    5.6529   -4.5809    0.0000 C   0  0  0  0  0  0  0  0  0  0  0  0
    5.0971   -5.1933    0.0000 C   0  0  0  0  0  0  0  0  0  0  0  0
    4.2888   -5.0181    0.0000 C   0  0  0  0  0  0  0  0  0  0  0  0
    3.5316   -2.6555    0.0000 C   0  0  0  0  0  0  0  0  0  0  0  0
    3.2792   -1.8680    0.0000 C   0  0  0  0  0  0  0  0  0  0  0  0
    1.4317   -0.6509    0.0000 C   0  0  0  0  0  0  0  0  0  0  0  0
    0.7158   -1.0650    0.0000 C   0  0  0  0  0  0  0  0  0  0  0  0
    0.7158   -1.8920    0.0000 N   0  0  0  0  0  0  0  0  0  0  0  0
    0.0000   -0.6509    0.0000 N   0  0  0  0  0  0  0  0  0  0  0  0
    0.0000    0.1774    0.0000 C   0  0  0  0  0  0  0  0  0  0  0  0
    0.7158    0.5915    0.0000 N   0  0  0  0  0  0  0  0  0  0  0  0
    1.4317    0.1774    0.0000 C   0  0  0  0  0  0  0  0  0  0  0  0
    1.9822    1.8864    0.0000 C   0  0  0  0  0  0  0  0  0  0  0  0
  1  2  1  0
  2  3  3  0
  3  4  1  0
  4  5  2  0
  4  6  1  0
  6 34  1  0
  6  7  1  0
  7  8  1  0
  8  9  1  0
  9 10  1  1
 10 33  1  0
 10 11  1  0
 11 12  2  0
 11 13  1  0
 13 14  1  0
 14 26  1  0
 14 15  2  0
 15 16  1  0
 16 17  2  0
 17 18  1  0
 18 19  1  0
 19 24  1  0
 19 20  2  0
 20 21  1  0
 21 22  2  0
 22 23  1  0
 23 24  2  0
 17 25  1  0
 25 26  2  0
 13 27  1  0
 27 33  2  0
 27 28  1  0
 28 29  1  0
 28 30  2  0
 30 31  1  0
 31 32  2  0
 32 33  1  0
  9 34  1  0
M  END
>  <SMILES>  (33) 
CC#CC(=O)N1CC[C@@H](n2c(=O)n(-c3ccc(Oc4ccccc4)cc3)c3c(N)ncnc32)C1

>  <CollectionName>  (33) 
labnetworkBB

>  <LOG PLASMA PROTEIN BINDING (RAT) (% unbound)>  (33) 
0.669595781024

>  <Internal ID>  (33) 
Mol33

>  <Source>  (33) 
Biogen

$$$$
168890455
     RDKit          2D

 35 39  0  0  0  0  0  0  0  0999 V2000
    1.9155   -3.6825    0.0000 N   0  0  0  0  0  0  0  0  0  0  0  0
    2.4713   -3.0701    0.0000 C   0  0  0  0  0  0  0  0  0  0  0  0
    3.2795   -3.2453    0.0000 O   0  0  0  0  0  0  0  0  0  0  0  0
    2.2189   -2.2826    0.0000 C   0  0  0  0  0  0  0  0  0  0  0  0
    1.4320   -2.0282    0.0000 C   0  0  0  0  0  0  0  0  0  0  0  0
    0.7162   -2.4423    0.0000 N   0  0  0  0  0  0  0  0  0  0  0  0
    0.0004   -2.0282    0.0000 C   0  0  0  0  0  0  0  0  0  0  0  0
    0.0004   -1.1999    0.0000 C   0  0  0  0  0  0  0  0  0  0  0  0
    0.7162   -0.7858    0.0000 C   0  0  0  0  0  0  0  0  0  0  0  0
    0.7162    0.0412    0.0000 C   0  0  0  0  0  0  0  0  0  0  0  0
    0.0000    0.4547    0.0000 C   0  0  0  0  0  0  0  0  0  0  0  0
    0.0000    1.2817    0.0000 C   0  0  0  0  0  0  0  0  0  0  0  0
    0.7162    1.6952    0.0000 N   0  0  0  0  0  0  0  0  0  0  0  0
    1.4324    1.2817    0.0000 C   0  0  0  0  0  0  0  0  0  0  0  0
    1.4324    0.4547    0.0000 C   0  0  0  0  0  0  0  0  0  0  0  0
    0.7162    2.5222    0.0000 C   0  0  0  0  0  0  0  0  0  0  0  0
    0.0000    2.9357    0.0000 O   0  0  0  0  0  0  0  0  0  0  0  0
    1.4324    2.9357    0.0000 C   0  0  0  0  0  0  0  0  0  0  0  0
    1.4324    3.7627    0.0000 C   0  0  0  0  0  0  0  0  0  0  0  0
    1.4320   -1.1999    0.0000 N   0  0  0  0  0  0  0  0  0  0  0  0
    2.2189   -0.9456    0.0000 N   0  0  0  0  0  0  0  0  0  0  0  0
    2.7099   -1.6141    0.0000 C   0  0  0  0  0  0  0  0  0  0  0  0
    3.5369   -1.6141    0.0000 C   0  0  0  0  0  0  0  0  0  0  0  0
    3.9504   -0.8979    0.0000 C   0  0  0  0  0  0  0  0  0  0  0  0
    4.7774   -0.8979    0.0000 C   0  0  0  0  0  0  0  0  0  0  0  0
    5.1909   -1.6141    0.0000 C   0  0  0  0  0  0  0  0  0  0  0  0
    6.0179   -1.6141    0.0000 O   0  0  0  0  0  0  0  0  0  0  0  0
    6.4314   -2.3303    0.0000 C   0  0  0  0  0  0  0  0  0  0  0  0
    7.2584   -2.3303    0.0000 C   0  0  0  0  0  0  0  0  0  0  0  0
    7.6719   -3.0465    0.0000 C   0  0  0  0  0  0  0  0  0  0  0  0
    7.2584   -3.7627    0.0000 C   0  0  0  0  0  0  0  0  0  0  0  0
    6.4314   -3.7627    0.0000 C   0  0  0  0  0  0  0  0  0  0  0  0
    6.0179   -3.0465    0.0000 C   0  0  0  0  0  0  0  0  0  0  0  0
    4.7774   -2.3303    0.0000 C   0  0  0  0  0  0  0  0  0  0  0  0
    3.9504   -2.3303    0.0000 C   0  0  0  0  0  0  0  0  0  0  0  0
  1  2  1  0
  2  3  2  0
  2  4  1  0
  4 22  1  0
  4  5  2  0
  5 20  1  0
  5  6  1  0
  6  7  1  0
  7  8  1  0
  8  9  1  0
  9 10  1  0
 10 15  1  0
 10 11  1  0
 11 12  1  0
 12 13  1  0
 13 14  1  0
 14 15  1  0
 13 16  1  0
 16 17  2  0
 16 18  1  0
 18 19  2  0
  9 20  1  0
 20 21  1  0
 21 22  2  0
 22 23  1  0
 23 35  1  0
 23 24  2  0
 24 25  1  0
 25 26  2  0
 26 27  1  0
 27 28  1  0
 28 33  1  0
 28 29  2  0
 29 30  1  0
 30 31  2  0
 31 32  1  0
 32 33  2  0
 26 34  1  0
 34 35  2  0
M  END
>  <SMILES>  (34) 
C=CC(=O)N1CCC(C2CCNc3c(C(N)=O)c(-c4ccc(Oc5ccccc5)cc4)nn32)CC1

>  <CollectionName>  (34) 
emolecules

>  <LOG PLASMA PROTEIN BINDING (RAT) (% unbound)>  (34) 
0.231979026832

>  <Internal ID>  (34) 
Mol34

>  <Source>  (34) 
Biogen

$$$$
68868488
     RDKit          2D

 34 38  0  0  1  0  0  0  0  0999 V2000
    0.7158    1.6111    0.0000 N   0  0  0  0  0  0  0  0  0  0  0  0
    0.7158    0.7841    0.0000 C   0  0  0  0  0  0  0  0  0  0  0  0
    0.0000    0.3700    0.0000 N   0  0  0  0  0  0  0  0  0  0  0  0
    0.0000   -0.4583    0.0000 C   0  0  0  0  0  0  0  0  0  0  0  0
    0.7158   -0.8724    0.0000 N   0  0  0  0  0  0  0  0  0  0  0  0
    1.4317   -0.4583    0.0000 C   0  0  0  0  0  0  0  0  0  0  0  0
    2.2185   -0.7127    0.0000 N   0  0  0  0  0  0  0  0  0  0  0  0
    2.4709   -1.5002    0.0000 C   0  0  0  0  0  0  0  0  0  0  0  0
    3.2792   -1.6754    0.0000 C   0  0  0  0  0  0  0  0  0  0  0  0
    3.5316   -2.4629    0.0000 C   0  0  0  0  0  0  0  0  0  0  0  0
    2.9758   -3.0753    0.0000 C   0  0  0  0  0  0  0  0  0  0  0  0
    2.1675   -2.9001    0.0000 N   0  0  0  0  0  0  0  0  0  0  0  0
    1.9151   -2.1126    0.0000 C   0  0  0  0  0  0  0  0  0  0  0  0
    1.6117   -3.5125    0.0000 C   0  0  0  0  0  0  0  0  0  0  0  0
    0.8035   -3.3373    0.0000 O   0  0  0  0  0  0  0  0  0  0  0  0
    1.8641   -4.3000    0.0000 C   0  0  0  0  0  0  0  0  0  0  0  0
    1.3083   -4.9124    0.0000 C   0  0  0  0  0  0  0  0  0  0  0  0
    2.7096   -0.0442    0.0000 C   0  0  0  0  0  0  0  0  0  0  0  0
    3.5366   -0.0442    0.0000 O   0  0  0  0  0  0  0  0  0  0  0  0
    2.2185    0.6244    0.0000 N   0  0  0  0  0  0  0  0  0  0  0  0
    2.4709    1.4119    0.0000 C   0  0  0  0  0  0  0  0  0  0  0  0
    1.9151    2.0243    0.0000 C   0  0  0  0  0  0  0  0  0  0  0  0
    2.1675    2.8118    0.0000 C   0  0  0  0  0  0  0  0  0  0  0  0
    2.9758    2.9870    0.0000 C   0  0  0  0  0  0  0  0  0  0  0  0
    3.2282    3.7745    0.0000 O   0  0  0  0  0  0  0  0  0  0  0  0
    4.0364    3.9497    0.0000 C   0  0  0  0  0  0  0  0  0  0  0  0
    4.5922    3.3373    0.0000 C   0  0  0  0  0  0  0  0  0  0  0  0
    5.4005    3.5125    0.0000 C   0  0  0  0  0  0  0  0  0  0  0  0
    5.6529    4.3000    0.0000 C   0  0  0  0  0  0  0  0  0  0  0  0
    5.0971    4.9124    0.0000 C   0  0  0  0  0  0  0  0  0  0  0  0
    4.2888    4.7372    0.0000 C   0  0  0  0  0  0  0  0  0  0  0  0
    3.5316    2.3746    0.0000 C   0  0  0  0  0  0  0  0  0  0  0  0
    3.2792    1.5871    0.0000 C   0  0  0  0  0  0  0  0  0  0  0  0
    1.4317    0.3700    0.0000 C   0  0  0  0  0  0  0  0  0  0  0  0
  1  2  1  0
  2 34  2  0
  2  3  1  0
  3  4  2  0
  4  5  1  0
  5  6  2  0
  6 34  1  0
  6  7  1  0
  8  7  1  1
  8 13  1  0
  8  9  1  0
  9 10  1  0
 10 11  1  0
 11 12  1  0
 12 13  1  0
 12 14  1  0
 14 15  2  0
 14 16  1  0
 16 17  2  0
  7 18  1  0
 18 19  2  0
 18 20  1  0
 20 21  1  0
 21 33  1  0
 21 22  2  0
 22 23  1  0
 23 24  2  0
 24 25  1  0
 25 26  1  0
 26 31  1  0
 26 27  2  0
 27 28  1  0
 28 29  2  0
 29 30  1  0
 30 31  2  0
 24 32  1  0
 32 33  2  0
 20 34  1  0
M  END
>  <SMILES>  (35) 
C=CC(=O)N1CCC[C@H](n2c(=O)n(-c3ccc(Oc4ccccc4)cc3)c3c(N)ncnc32)C1

>  <CollectionName>  (35) 
emolecules

>  <LOG PLASMA PROTEIN BINDING (RAT) (% unbound)>  (35) 
0.276231957922

>  <Internal ID>  (35) 
Mol35

>  <Source>  (35) 
Biogen

$$$$
316276642
     RDKit          2D

 49 55  0  0  1  0  0  0  0  0999 V2000
    4.8653    3.2080    0.0000 C   0  0  0  0  0  0  0  0  0  0  0  0
    5.6529    2.9556    0.0000 C   0  0  0  0  0  0  0  0  0  0  0  0
    6.4404    2.7032    0.0000 C   0  0  0  0  0  0  0  0  0  0  0  0
    5.4005    2.1681    0.0000 C   0  0  0  0  0  0  0  0  0  0  0  0
    4.5922    1.9929    0.0000 C   0  0  0  0  0  0  0  0  0  0  0  0
    4.0364    2.6053    0.0000 C   0  0  0  0  0  0  0  0  0  0  0  0
    3.4806    3.2176    0.0000 N   0  0  0  0  0  0  0  0  0  0  0  0
    4.3398    1.2054    0.0000 C   0  0  0  0  0  0  0  0  0  0  0  0
    4.8956    0.5930    0.0000 O   0  0  0  0  0  0  0  0  0  0  0  0
    3.5316    1.0302    0.0000 N   0  0  0  0  0  0  0  0  0  0  0  0
    2.9758    1.6426    0.0000 C   0  0  0  0  0  0  0  0  0  0  0  0
    2.1675    1.4674    0.0000 C   0  0  0  0  0  0  0  0  0  0  0  0
    1.9151    0.6798    0.0000 C   0  0  0  0  0  0  0  0  0  0  0  0
    2.4709    0.0675    0.0000 C   0  0  0  0  0  0  0  0  0  0  0  0
    3.2792    0.2427    0.0000 C   0  0  0  0  0  0  0  0  0  0  0  0
    2.2185   -0.7201    0.0000 N   0  0  0  0  0  0  0  0  0  0  0  0
    2.7096   -1.3886    0.0000 N   0  0  0  0  0  0  0  0  0  0  0  0
    2.2185   -2.0571    0.0000 C   0  0  0  0  0  0  0  0  0  0  0  0
    2.4709   -2.8446    0.0000 C   0  0  0  0  0  0  0  0  0  0  0  0
    1.9151   -3.4570    0.0000 C   0  0  0  0  0  0  0  0  0  0  0  0
    2.1675   -4.2445    0.0000 C   0  0  0  0  0  0  0  0  0  0  0  0
    2.9758   -4.4197    0.0000 C   0  0  0  0  0  0  0  0  0  0  0  0
    3.2282   -5.2072    0.0000 O   0  0  0  0  0  0  0  0  0  0  0  0
    2.6724   -5.8196    0.0000 C   0  0  0  0  0  0  0  0  0  0  0  0
    1.8641   -5.6444    0.0000 C   0  0  0  0  0  0  0  0  0  0  0  0
    1.3083   -6.2568    0.0000 C   0  0  0  0  0  0  0  0  0  0  0  0
    1.5607   -7.0443    0.0000 C   0  0  0  0  0  0  0  0  0  0  0  0
    2.3690   -7.2195    0.0000 C   0  0  0  0  0  0  0  0  0  0  0  0
    2.9248   -6.6071    0.0000 C   0  0  0  0  0  0  0  0  0  0  0  0
    3.5316   -3.8073    0.0000 C   0  0  0  0  0  0  0  0  0  0  0  0
    3.2792   -3.0198    0.0000 C   0  0  0  0  0  0  0  0  0  0  0  0
    3.8350   -2.4074    0.0000 F   0  0  0  0  0  0  0  0  0  0  0  0
    1.4317   -1.8027    0.0000 C   0  0  0  0  0  0  0  0  0  0  0  0
    0.7158   -2.2168    0.0000 C   0  0  0  0  0  0  0  0  0  0  0  0
    0.7158   -3.0438    0.0000 N   0  0  0  0  0  0  0  0  0  0  0  0
    0.0000   -1.8027    0.0000 N   0  0  0  0  0  0  0  0  0  0  0  0
    0.0000   -0.9744    0.0000 C   0  0  0  0  0  0  0  0  0  0  0  0
    0.7158   -0.5603    0.0000 N   0  0  0  0  0  0  0  0  0  0  0  0
    1.4317   -0.9744    0.0000 C   0  0  0  0  0  0  0  0  0  0  0  0
    5.9053    3.7431    0.0000 N   0  0  0  0  0  0  0  0  0  0  0  0
    6.7135    3.9183    0.0000 C   0  0  0  0  0  0  0  0  0  0  0  0
    6.9659    4.7059    0.0000 C   0  0  0  0  0  0  0  0  0  0  0  0
    6.4101    5.3182    0.0000 N   0  0  0  0  0  0  0  0  0  0  0  0
    5.6019    5.1431    0.0000 C   0  0  0  0  0  0  0  0  0  0  0  0
    5.3495    4.3555    0.0000 C   0  0  0  0  0  0  0  0  0  0  0  0
    6.6625    6.1058    0.0000 C   0  0  0  0  0  0  0  0  0  0  0  0
    7.3979    6.4841    0.0000 C   0  0  0  0  0  0  0  0  0  0  0  0
    7.0195    7.2195    0.0000 O   0  0  0  0  0  0  0  0  0  0  0  0
    6.2842    6.8411    0.0000 C   0  0  0  0  0  0  0  0  0  0  0  0
  1  2  1  0
  2  3  1  0
  2  4  1  0
  4  5  2  0
  5  6  1  0
  6  7  3  0
  5  8  1  0
  8  9  2  0
  8 10  1  0
 10 15  1  0
 10 11  1  0
 11 12  1  0
 12 13  1  0
 13 14  1  0
 14 15  1  0
 14 16  1  6
 16 39  1  0
 16 17  1  0
 17 18  2  0
 18 19  1  0
 19 31  1  0
 19 20  2  0
 20 21  1  0
 21 22  2  0
 22 23  1  0
 23 24  1  0
 24 29  1  0
 24 25  2  0
 25 26  1  0
 26 27  2  0
 27 28  1  0
 28 29  2  0
 22 30  1  0
 30 31  2  0
 31 32  1  0
 18 33  1  0
 33 39  2  0
 33 34  1  0
 34 35  1  0
 34 36  2  0
 36 37  1  0
 37 38  2  0
 38 39  1  0
  2 40  1  0
 40 45  1  0
 40 41  1  0
 41 42  1  0
 42 43  1  0
 43 44  1  0
 44 45  1  0
 43 46  1  0
 46 49  1  0
 46 47  1  0
 47 48  1  0
 48 49  1  0
M  END
>  <SMILES>  (36) 
CC(C)(/C=C(\C#N)C(=O)N1CCC[C@@H](n2nc(-c3ccc(Oc4ccccc4)cc3F)c3c(N)ncnc32)C1)N1CCN(C2COC2)CC1

>  <CollectionName>  (36) 
emolecules

>  <LOG PLASMA PROTEIN BINDING (RAT) (% unbound)>  (36) 
0.123198075032

>  <Internal ID>  (36) 
Mol36

>  <Source>  (36) 
Biogen

$$$$
324043470
     RDKit          2D

 36 40  0  0  1  0  0  0  0  0999 V2000
    3.6511    5.4453    0.0000 C   0  0  0  0  0  0  0  0  0  0  0  0
    3.7408    4.6232    0.0000 C   0  0  0  0  0  0  0  0  0  0  0  0
    3.8305    3.8011    0.0000 C   0  0  0  0  0  0  0  0  0  0  0  0
    3.9202    2.9789    0.0000 C   0  0  0  0  0  0  0  0  0  0  0  0
    4.6771    2.6456    0.0000 O   0  0  0  0  0  0  0  0  0  0  0  0
    3.2531    2.4902    0.0000 N   0  0  0  0  0  0  0  0  0  0  0  0
    2.4656    2.7426    0.0000 C   0  0  0  0  0  0  0  0  0  0  0  0
    1.9822    2.0716    0.0000 C   0  0  0  0  0  0  0  0  0  0  0  0
    2.4709    1.4045    0.0000 C   0  0  0  0  0  0  0  0  0  0  0  0
    3.2564    1.6632    0.0000 C   0  0  0  0  0  0  0  0  0  0  0  0
    2.2185    0.6170    0.0000 N   0  0  0  0  0  0  0  0  0  0  0  0
    2.7096   -0.0516    0.0000 C   0  0  0  0  0  0  0  0  0  0  0  0
    2.2185   -0.7201    0.0000 C   0  0  0  0  0  0  0  0  0  0  0  0
    2.4709   -1.5076    0.0000 C   0  0  0  0  0  0  0  0  0  0  0  0
    1.9151   -2.1200    0.0000 C   0  0  0  0  0  0  0  0  0  0  0  0
    2.1675   -2.9075    0.0000 C   0  0  0  0  0  0  0  0  0  0  0  0
    2.9758   -3.0827    0.0000 C   0  0  0  0  0  0  0  0  0  0  0  0
    3.2282   -3.8702    0.0000 O   0  0  0  0  0  0  0  0  0  0  0  0
    4.0364   -4.0454    0.0000 C   0  0  0  0  0  0  0  0  0  0  0  0
    4.5922   -3.4330    0.0000 C   0  0  0  0  0  0  0  0  0  0  0  0
    4.3398   -2.6455    0.0000 F   0  0  0  0  0  0  0  0  0  0  0  0
    5.4005   -3.6082    0.0000 C   0  0  0  0  0  0  0  0  0  0  0  0
    5.6529   -4.3957    0.0000 C   0  0  0  0  0  0  0  0  0  0  0  0
    5.0971   -5.0081    0.0000 C   0  0  0  0  0  0  0  0  0  0  0  0
    4.2888   -4.8329    0.0000 C   0  0  0  0  0  0  0  0  0  0  0  0
    3.7330   -5.4453    0.0000 F   0  0  0  0  0  0  0  0  0  0  0  0
    3.5316   -2.4703    0.0000 C   0  0  0  0  0  0  0  0  0  0  0  0
    3.2792   -1.6828    0.0000 C   0  0  0  0  0  0  0  0  0  0  0  0
    1.4317   -0.4657    0.0000 C   0  0  0  0  0  0  0  0  0  0  0  0
    0.7158   -0.8798    0.0000 C   0  0  0  0  0  0  0  0  0  0  0  0
    0.7158   -1.7068    0.0000 N   0  0  0  0  0  0  0  0  0  0  0  0
    0.0000   -0.4657    0.0000 N   0  0  0  0  0  0  0  0  0  0  0  0
    0.0000    0.3626    0.0000 N   0  0  0  0  0  0  0  0  0  0  0  0
    0.7158    0.7767    0.0000 C   0  0  0  0  0  0  0  0  0  0  0  0
    0.7158    1.6037    0.0000 O   0  0  0  0  0  0  0  0  0  0  0  0
    1.4317    0.3626    0.0000 C   0  0  0  0  0  0  0  0  0  0  0  0
  1  2  1  0
  2  3  3  0
  3  4  1  0
  4  5  2  0
  4  6  1  0
  6 10  1  0
  6  7  1  0
  7  8  1  0
  8  9  1  0
  9 10  1  0
  9 11  1  6
 11 36  1  0
 11 12  1  0
 12 13  2  0
 13 14  1  0
 14 28  1  0
 14 15  2  0
 15 16  1  0
 16 17  2  0
 17 18  1  0
 18 19  1  0
 19 25  1  0
 19 20  2  0
 20 21  1  0
 20 22  1  0
 22 23  2  0
 23 24  1  0
 24 25  2  0
 25 26  1  0
 17 27  1  0
 27 28  2  0
 13 29  1  0
 29 36  2  0
 29 30  1  0
 30 31  1  0
 30 32  2  0
 32 33  1  0
 33 34  1  0
 34 35  2  0
 34 36  1  0
M  END
>  <SMILES>  (37) 
CC#CC(=O)N1CC[C@@H](n2cc(-c3ccc(Oc4c(F)cccc4F)cc3)c3c(N)n[nH]c(=O)c32)C1

>  <CollectionName>  (37) 
emolecules

>  <LOG PLASMA PROTEIN BINDING (RAT) (% unbound)>  (37) 
-0.0291883891275

>  <Internal ID>  (37) 
Mol37

>  <Source>  (37) 
Biogen

$$$$
93438921
     RDKit          2D

 36 40  0  0  0  0  0  0  0  0999 V2000
    2.1544    4.9632    0.0000 C   0  0  0  0  0  0  0  0  0  0  0  0
    2.1537    4.1362    0.0000 N   0  0  0  0  0  0  0  0  0  0  0  0
    2.8695    3.7221    0.0000 C   0  0  0  0  0  0  0  0  0  0  0  0
    2.8688    2.8951    0.0000 C   0  0  0  0  0  0  0  0  0  0  0  0
    2.1522    2.4822    0.0000 N   0  0  0  0  0  0  0  0  0  0  0  0
    1.4364    2.8964    0.0000 C   0  0  0  0  0  0  0  0  0  0  0  0
    1.4371    3.7234    0.0000 C   0  0  0  0  0  0  0  0  0  0  0  0
    2.1515    1.6552    0.0000 C   0  0  0  0  0  0  0  0  0  0  0  0
    2.8673    1.2411    0.0000 C   0  0  0  0  0  0  0  0  0  0  0  0
    2.8666    0.4141    0.0000 C   0  0  0  0  0  0  0  0  0  0  0  0
    2.1501    0.0012    0.0000 C   0  0  0  0  0  0  0  0  0  0  0  0
    2.1493   -0.8258    0.0000 N   0  0  0  0  0  0  0  0  0  0  0  0
    2.8652   -1.2399    0.0000 C   0  0  0  0  0  0  0  0  0  0  0  0
    2.8652   -2.0681    0.0000 N   0  0  0  0  0  0  0  0  0  0  0  0
    3.5810   -2.4822    0.0000 C   0  0  0  0  0  0  0  0  0  0  0  0
    3.5810   -3.3092    0.0000 O   0  0  0  0  0  0  0  0  0  0  0  0
    2.8648   -3.7227    0.0000 C   0  0  0  0  0  0  0  0  0  0  0  0
    2.8648   -4.5497    0.0000 C   0  0  0  0  0  0  0  0  0  0  0  0
    2.1486   -4.9632    0.0000 C   0  0  0  0  0  0  0  0  0  0  0  0
    1.4324   -4.5497    0.0000 C   0  0  0  0  0  0  0  0  0  0  0  0
    1.4324   -3.7227    0.0000 C   0  0  0  0  0  0  0  0  0  0  0  0
    0.7162   -3.3092    0.0000 N   0  0  0  0  0  0  0  0  0  0  0  0
    0.7162   -2.4822    0.0000 C   0  0  0  0  0  0  0  0  0  0  0  0
    1.4324   -2.0687    0.0000 O   0  0  0  0  0  0  0  0  0  0  0  0
    0.0000   -2.0687    0.0000 C   0  0  0  0  0  0  0  0  0  0  0  0
    0.0000   -1.2417    0.0000 C   0  0  0  0  0  0  0  0  0  0  0  0
    2.1486   -3.3092    0.0000 C   0  0  0  0  0  0  0  0  0  0  0  0
    4.2969   -2.0681    0.0000 C   0  0  0  0  0  0  0  0  0  0  0  0
    5.0837   -2.3225    0.0000 C   0  0  0  0  0  0  0  0  0  0  0  0
    5.5747   -1.6540    0.0000 C   0  0  0  0  0  0  0  0  0  0  0  0
    5.0837   -0.9855    0.0000 N   0  0  0  0  0  0  0  0  0  0  0  0
    4.2969   -1.2399    0.0000 C   0  0  0  0  0  0  0  0  0  0  0  0
    3.5810   -0.8258    0.0000 N   0  0  0  0  0  0  0  0  0  0  0  0
    1.4342    0.4154    0.0000 C   0  0  0  0  0  0  0  0  0  0  0  0
    1.4349    1.2424    0.0000 C   0  0  0  0  0  0  0  0  0  0  0  0
    0.7191    1.6565    0.0000 F   0  0  0  0  0  0  0  0  0  0  0  0
  1  2  1  0
  2  7  1  0
  2  3  1  0
  3  4  1  0
  4  5  1  0
  5  6  1  0
  6  7  1  0
  5  8  1  0
  8 35  1  0
  8  9  2  0
  9 10  1  0
 10 11  2  0
 11 12  1  0
 12 13  1  0
 13 33  1  0
 13 14  2  0
 14 15  1  0
 15 16  1  0
 16 17  1  0
 17 27  1  0
 17 18  2  0
 18 19  1  0
 19 20  2  0
 20 21  1  0
 21 22  1  0
 22 23  1  0
 23 24  2  0
 23 25  1  0
 25 26  2  0
 21 27  2  0
 15 28  2  0
 28 32  1  0
 28 29  1  0
 29 30  2  0
 30 31  1  0
 31 32  1  0
 32 33  2  0
 11 34  1  0
 34 35  2  0
 35 36  1  0
M  END
>  <SMILES>  (38) 
C=CC(=O)Nc1cccc(Oc2nc(Nc3ccc(N4CCN(C)CC4)c(F)c3)nc3[nH]ccc23)c1

>  <CollectionName>  (38) 
emolecules

>  <LOG PLASMA PROTEIN BINDING (RAT) (% unbound)>  (38) 
-0.1390633793

>  <Internal ID>  (38) 
Mol38

>  <Source>  (38) 
Biogen

$$$$
252308493
     RDKit          2D

 30 33  0  0  1  0  0  0  0  0999 V2000
    4.5988    2.6255    0.0000 C   0  0  0  0  0  0  0  0  0  0  0  0
    5.0123    1.9093    0.0000 C   0  0  0  0  0  0  0  0  0  0  0  0
    4.2965    1.4952    0.0000 N   0  0  0  0  0  0  0  0  0  0  0  0
    4.2965    0.6670    0.0000 C   0  0  0  0  0  0  0  0  0  0  0  0
    5.0123    0.2528    0.0000 C   0  0  0  0  0  0  0  0  0  0  0  0
    5.7282    0.6670    0.0000 C   0  0  0  0  0  0  0  0  0  0  0  0
    5.7282    1.4952    0.0000 C   0  0  0  0  0  0  0  0  0  0  0  0
    6.5150    1.7496    0.0000 N   0  0  0  0  0  0  0  0  0  0  0  0
    7.0060    1.0811    0.0000 N   0  0  0  0  0  0  0  0  0  0  0  0
    6.5150    0.4126    0.0000 N   0  0  0  0  0  0  0  0  0  0  0  0
    6.7674   -0.3750    0.0000 C   0  0  0  0  0  0  0  0  0  0  0  0
    7.5757   -0.5501    0.0000 N   0  0  0  0  0  0  0  0  0  0  0  0
    7.8281   -1.3377    0.0000 C   0  0  0  0  0  0  0  0  0  0  0  0
    7.2723   -1.9500    0.0000 C   0  0  0  0  0  0  0  0  0  0  0  0
    7.5247   -2.7376    0.0000 F   0  0  0  0  0  0  0  0  0  0  0  0
    6.4640   -1.7749    0.0000 C   0  0  0  0  0  0  0  0  0  0  0  0
    6.2116   -0.9873    0.0000 N   0  0  0  0  0  0  0  0  0  0  0  0
    3.5807    1.9093    0.0000 C   0  0  0  0  0  0  0  0  0  0  0  0
    3.5814    2.7363    0.0000 O   0  0  0  0  0  0  0  0  0  0  0  0
    2.8641    1.4965    0.0000 C   0  0  0  0  0  0  0  0  0  0  0  0
    2.8634    0.6695    0.0000 C   0  0  0  0  0  0  0  0  0  0  0  0
    2.1468    0.2566    0.0000 C   0  0  0  0  0  0  0  0  0  0  0  0
    1.4310    0.6707    0.0000 C   0  0  0  0  0  0  0  0  0  0  0  0
    1.4317    1.4977    0.0000 C   0  0  0  0  0  0  0  0  0  0  0  0
    2.1482    1.9106    0.0000 C   0  0  0  0  0  0  0  0  0  0  0  0
    2.1490    2.7376    0.0000 Cl  0  0  0  0  0  0  0  0  0  0  0  0
    0.7158    1.9118    0.0000 C   0  0  0  0  0  0  0  0  0  0  0  0
    1.1300    2.6277    0.0000 F   0  0  0  0  0  0  0  0  0  0  0  0
    0.0000    2.3260    0.0000 F   0  0  0  0  0  0  0  0  0  0  0  0
    0.3017    1.1960    0.0000 F   0  0  0  0  0  0  0  0  0  0  0  0
  2  1  1  6
  2  7  1  0
  2  3  1  0
  3  4  1  0
  4  5  1  0
  5  6  1  0
  6 10  1  0
  6  7  2  0
  7  8  1  0
  8  9  2  0
  9 10  1  0
 10 11  1  0
 11 17  1  0
 11 12  2  0
 12 13  1  0
 13 14  2  0
 14 15  1  0
 14 16  1  0
 16 17  2  0
  3 18  1  0
 18 19  2  0
 18 20  1  0
 20 25  1  0
 20 21  2  0
 21 22  1  0
 22 23  2  0
 23 24  1  0
 24 25  2  0
 25 26  1  0
 24 27  1  0
 27 28  1  0
 27 29  1  0
 27 30  1  0
M  END
>  <SMILES>  (39) 
C[C@@H]1c2nnn(-c3ncc(F)cn3)c2CCN1C(=O)c1cccc(C(F)(F)F)c1Cl

>  <CollectionName>  (39) 
emolecules

>  <LOG PLASMA PROTEIN BINDING (RAT) (% unbound)>  (39) 
1.24004977211

>  <Internal ID>  (39) 
Mol39

>  <Source>  (39) 
Biogen

$$$$
32130783
     RDKit          2D

 28 31  0  0  0  0  0  0  0  0999 V2000
    2.8019   -2.0312    0.0000 C   0  0  0  0  0  0  0  0  0  0  0  0
    2.4669   -1.2751    0.0000 O   0  0  0  0  0  0  0  0  0  0  0  0
    1.6446   -1.1872    0.0000 C   0  0  0  0  0  0  0  0  0  0  0  0
    1.1573   -1.8554    0.0000 C   0  0  0  0  0  0  0  0  0  0  0  0
    0.3350   -1.7674    0.0000 C   0  0  0  0  0  0  0  0  0  0  0  0
    0.0000   -1.0113    0.0000 C   0  0  0  0  0  0  0  0  0  0  0  0
    0.4873   -0.3431    0.0000 C   0  0  0  0  0  0  0  0  0  0  0  0
    1.3096   -0.4311    0.0000 C   0  0  0  0  0  0  0  0  0  0  0  0
    1.7969    0.2371    0.0000 C   0  0  0  0  0  0  0  0  0  0  0  0
    2.6227    0.2371    0.0000 C   0  0  0  0  0  0  0  0  0  0  0  0
    2.8763    1.0216    0.0000 C   0  0  0  0  0  0  0  0  0  0  0  0
    3.6639    1.2740    0.0000 N   0  0  0  0  0  0  0  0  0  0  0  0
    4.2763    0.7182    0.0000 C   0  0  0  0  0  0  0  0  0  0  0  0
    4.1011   -0.0901    0.0000 O   0  0  0  0  0  0  0  0  0  0  0  0
    5.0638    0.9706    0.0000 C   0  0  0  0  0  0  0  0  0  0  0  0
    5.2390    1.7788    0.0000 C   0  0  0  0  0  0  0  0  0  0  0  0
    6.0265    2.0312    0.0000 C   0  0  0  0  0  0  0  0  0  0  0  0
    6.6389    1.4754    0.0000 C   0  0  0  0  0  0  0  0  0  0  0  0
    6.4637    0.6672    0.0000 C   0  0  0  0  0  0  0  0  0  0  0  0
    5.6762    0.4148    0.0000 C   0  0  0  0  0  0  0  0  0  0  0  0
    7.0761    0.1114    0.0000 N   0  0  0  0  0  0  0  0  0  0  0  0
    7.8857    0.2801    0.0000 C   0  0  0  0  0  0  0  0  0  0  0  0
    8.2963   -0.4378    0.0000 C   0  0  0  0  0  0  0  0  0  0  0  0
    7.7405   -1.0501    0.0000 N   0  0  0  0  0  0  0  0  0  0  0  0
    6.9863   -0.7107    0.0000 C   0  0  0  0  0  0  0  0  0  0  0  0
    6.2685   -1.1214    0.0000 O   0  0  0  0  0  0  0  0  0  0  0  0
    2.2098    1.5112    0.0000 N   0  0  0  0  0  0  0  0  0  0  0  0
    1.5433    1.0216    0.0000 N   0  0  0  0  0  0  0  0  0  0  0  0
  1  2  1  0
  2  3  1  0
  3  8  2  0
  3  4  1  0
  4  5  2  0
  5  6  1  0
  6  7  2  0
  7  8  1  0
  8  9  1  0
  9 28  2  0
  9 10  1  0
 10 11  2  0
 11 12  1  0
 12 13  1  0
 13 14  2  0
 13 15  1  0
 15 20  1  0
 15 16  2  0
 16 17  1  0
 17 18  2  0
 18 19  1  0
 19 20  2  0
 19 21  1  0
 21 25  1  0
 21 22  1  0
 22 23  1  0
 23 24  1  0
 24 25  1  0
 25 26  2  0
 11 27  1  0
 27 28  1  0
M  END
>  <SMILES>  (40) 
COc1ccccc1-c1cc(NC(=O)c2cccc(N3CCNC3=O)c2)[nH]n1

>  <CollectionName>  (40) 
emolecules

>  <LOG PLASMA PROTEIN BINDING (RAT) (% unbound)>  (40) 
-0.742321425131

>  <Internal ID>  (40) 
Mol40

>  <Source>  (40) 
Biogen

$$$$
202119
     RDKit          2D

 31 34  0  0  0  0  0  0  0  0999 V2000
    5.6841    1.0756    0.0000 N   0  0  0  0  0  0  0  0  0  0  0  0
    4.8571    1.0756    0.0000 C   0  0  0  0  0  0  0  0  0  0  0  0
    4.4430    1.7914    0.0000 N   0  0  0  0  0  0  0  0  0  0  0  0
    3.6147    1.7914    0.0000 C   0  0  0  0  0  0  0  0  0  0  0  0
    3.2006    1.0756    0.0000 C   0  0  0  0  0  0  0  0  0  0  0  0
    2.3723    1.0756    0.0000 C   0  0  0  0  0  0  0  0  0  0  0  0
    1.9582    0.3597    0.0000 C   0  0  0  0  0  0  0  0  0  0  0  0
    1.1300    0.3597    0.0000 C   0  0  0  0  0  0  0  0  0  0  0  0
    0.7158    1.0756    0.0000 C   0  0  0  0  0  0  0  0  0  0  0  0
    1.1300    1.7914    0.0000 C   0  0  0  0  0  0  0  0  0  0  0  0
    1.9582    1.7914    0.0000 C   0  0  0  0  0  0  0  0  0  0  0  0
    0.7158    2.5073    0.0000 C   0  0  0  0  0  0  0  0  0  0  0  0
    1.4317    2.9214    0.0000 F   0  0  0  0  0  0  0  0  0  0  0  0
    0.3017    3.2231    0.0000 F   0  0  0  0  0  0  0  0  0  0  0  0
    0.0000    2.0931    0.0000 F   0  0  0  0  0  0  0  0  0  0  0  0
    3.6147    0.3597    0.0000 C   0  0  0  0  0  0  0  0  0  0  0  0
    4.4430    0.3597    0.0000 N   0  0  0  0  0  0  0  0  0  0  0  0
    3.2006   -0.3561    0.0000 C   0  0  0  0  0  0  0  0  0  0  0  0
    2.3736   -0.3554    0.0000 C   0  0  0  0  0  0  0  0  0  0  0  0
    1.9595   -1.0712    0.0000 C   0  0  0  0  0  0  0  0  0  0  0  0
    2.3723   -1.7878    0.0000 C   0  0  0  0  0  0  0  0  0  0  0  0
    3.1993   -1.7885    0.0000 C   0  0  0  0  0  0  0  0  0  0  0  0
    3.6135   -1.0727    0.0000 N   0  0  0  0  0  0  0  0  0  0  0  0
    4.4405   -1.0734    0.0000 C   0  0  0  0  0  0  0  0  0  0  0  0
    4.8546   -0.3576    0.0000 O   0  0  0  0  0  0  0  0  0  0  0  0
    4.8533   -1.7900    0.0000 C   0  0  0  0  0  0  0  0  0  0  0  0
    5.6803   -1.7907    0.0000 C   0  0  0  0  0  0  0  0  0  0  0  0
    6.0932   -2.5073    0.0000 C   0  0  0  0  0  0  0  0  0  0  0  0
    5.6791   -3.2231    0.0000 C   0  0  0  0  0  0  0  0  0  0  0  0
    4.8521   -3.2224    0.0000 C   0  0  0  0  0  0  0  0  0  0  0  0
    4.4392   -2.5058    0.0000 C   0  0  0  0  0  0  0  0  0  0  0  0
  1  2  1  0
  2 17  2  0
  2  3  1  0
  3  4  2  0
  4  5  1  0
  5  6  1  0
  6 11  1  0
  6  7  2  0
  7  8  1  0
  8  9  2  0
  9 10  1  0
 10 11  2  0
 10 12  1  0
 12 13  1  0
 12 14  1  0
 12 15  1  0
  5 16  2  0
 16 17  1  0
 16 18  1  0
 18 23  1  0
 18 19  1  0
 19 20  1  0
 20 21  1  0
 21 22  1  0
 22 23  1  0
 23 24  1  0
 24 25  2  0
 24 26  1  0
 26 31  1  0
 26 27  2  0
 27 28  1  0
 28 29  2  0
 29 30  1  0
 30 31  2  0
M  END
>  <SMILES>  (41) 
Nc1ncc(-c2cccc(C(F)(F)F)c2)c(C2CCCCN2C(=O)c2ccccc2)n1

>  <CollectionName>  (41) 
emolecules

>  <LOG PLASMA PROTEIN BINDING (RAT) (% unbound)>  (41) 
0.137354111371

>  <Internal ID>  (41) 
Mol41

>  <Source>  (41) 
Biogen

$$$$
110118917
     RDKit          2D

 31 36  0  0  0  0  0  0  0  0999 V2000
    0.9957    4.3456    0.0000 O   0  0  0  0  0  0  0  0  0  0  0  0
    0.5822    3.6294    0.0000 C   0  0  0  0  0  0  0  0  0  0  0  0
    0.9957    2.9132    0.0000 N   0  0  0  0  0  0  0  0  0  0  0  0
    1.8227    2.9132    0.0000 C   0  0  0  0  0  0  0  0  0  0  0  0
    2.2362    3.6294    0.0000 C   0  0  0  0  0  0  0  0  0  0  0  0
    3.0632    3.6294    0.0000 C   0  0  0  0  0  0  0  0  0  0  0  0
    3.4767    2.9132    0.0000 C   0  0  0  0  0  0  0  0  0  0  0  0
    3.0632    2.1970    0.0000 C   0  0  0  0  0  0  0  0  0  0  0  0
    2.2362    2.1970    0.0000 C   0  0  0  0  0  0  0  0  0  0  0  0
    3.4767    1.4808    0.0000 C   0  0  0  0  0  0  0  0  0  0  0  0
    4.2992    1.3944    0.0000 N   0  0  0  0  0  0  0  0  0  0  0  0
    4.4711    0.5854    0.0000 N   0  0  0  0  0  0  0  0  0  0  0  0
    3.7549    0.1719    0.0000 C   0  0  0  0  0  0  0  0  0  0  0  0
    3.1404    0.7253    0.0000 N   0  0  0  0  0  0  0  0  0  0  0  0
    2.3314    0.5534    0.0000 C   0  0  0  0  0  0  0  0  0  0  0  0
    1.7169   -0.0000    0.0000 C   0  0  0  0  0  0  0  0  0  0  0  0
    1.5449    0.8089    0.0000 C   0  0  0  0  0  0  0  0  0  0  0  0
   -0.2448    3.6294    0.0000 C   0  0  0  0  0  0  0  0  0  0  0  0
   -0.6583    2.9132    0.0000 C   0  0  0  0  0  0  0  0  0  0  0  0
   -1.4853    2.9132    0.0000 C   0  0  0  0  0  0  0  0  0  0  0  0
   -1.8988    3.6294    0.0000 C   0  0  0  0  0  0  0  0  0  0  0  0
   -1.4853    4.3456    0.0000 C   0  0  0  0  0  0  0  0  0  0  0  0
   -0.6583    4.3456    0.0000 N   0  0  0  0  0  0  0  0  0  0  0  0
   -1.8988    2.1970    0.0000 N   0  0  0  0  0  0  0  0  0  0  0  0
   -1.5624    1.4415    0.0000 C   0  0  0  0  0  0  0  0  0  0  0  0
   -2.1770    0.8881    0.0000 N   0  0  0  0  0  0  0  0  0  0  0  0
   -2.8932    1.3016    0.0000 C   0  0  0  0  0  0  0  0  0  0  0  0
   -2.7212    2.1106    0.0000 C   0  0  0  0  0  0  0  0  0  0  0  0
   -3.6487    0.9653    0.0000 C   0  0  0  0  0  0  0  0  0  0  0  0
   -4.1348    0.2962    0.0000 C   0  0  0  0  0  0  0  0  0  0  0  0
   -4.4711    1.0517    0.0000 C   0  0  0  0  0  0  0  0  0  0  0  0
  1  2  2  0
  2  3  1  0
  3  4  1  0
  4  9  1  0
  4  5  2  0
  5  6  1  0
  6  7  2  0
  7  8  1  0
  8  9  2  0
  8 10  1  0
 10 14  1  0
 10 11  2  0
 11 12  1  0
 12 13  2  0
 13 14  1  0
 14 15  1  0
 15 17  1  0
 15 16  1  0
 16 17  1  0
  2 18  1  0
 18 23  1  0
 18 19  2  0
 19 20  1  0
 20 21  2  0
 21 22  1  0
 22 23  2  0
 20 24  1  0
 24 28  1  0
 24 25  1  0
 25 26  2  0
 26 27  1  0
 27 28  2  0
 27 29  1  0
 29 31  1  0
 29 30  1  0
 30 31  1  0
M  END
>  <SMILES>  (42) 
O=C(Nc1cccc(-c2nncn2C2CC2)c1)c1cc(-n2cnc(C3CC3)c2)ccn1

>  <CollectionName>  (42) 
emolecules

>  <LOG PLASMA PROTEIN BINDING (RAT) (% unbound)>  (42) 
0.61193562504

>  <Internal ID>  (42) 
Mol42

>  <Source>  (42) 
Biogen

$$$$
207447
     RDKit          2D

 28 32  0  0  0  0  0  0  0  0999 V2000
    0.7180   -1.6948    0.0000 F   0  0  0  0  0  0  0  0  0  0  0  0
    0.7173   -0.8678    0.0000 C   0  0  0  0  0  0  0  0  0  0  0  0
    0.0007   -0.4549    0.0000 C   0  0  0  0  0  0  0  0  0  0  0  0
    0.0000    0.3721    0.0000 C   0  0  0  0  0  0  0  0  0  0  0  0
    0.7158    0.7862    0.0000 C   0  0  0  0  0  0  0  0  0  0  0  0
    1.4324    0.3733    0.0000 C   0  0  0  0  0  0  0  0  0  0  0  0
    1.4331   -0.4537    0.0000 C   0  0  0  0  0  0  0  0  0  0  0  0
    2.1497   -0.8666    0.0000 C   0  0  0  0  0  0  0  0  0  0  0  0
    2.2368   -1.6890    0.0000 C   0  0  0  0  0  0  0  0  0  0  0  0
    3.0459   -1.8602    0.0000 N   0  0  0  0  0  0  0  0  0  0  0  0
    3.4588   -1.1436    0.0000 N   0  0  0  0  0  0  0  0  0  0  0  0
    2.9049   -0.5295    0.0000 C   0  0  0  0  0  0  0  0  0  0  0  0
    3.0761    0.2795    0.0000 C   0  0  0  0  0  0  0  0  0  0  0  0
    2.5222    0.8936    0.0000 C   0  0  0  0  0  0  0  0  0  0  0  0
    2.9351    1.6102    0.0000 C   0  0  0  0  0  0  0  0  0  0  0  0
    3.7442    1.4390    0.0000 C   0  0  0  0  0  0  0  0  0  0  0  0
    3.8313    0.6166    0.0000 N   0  0  0  0  0  0  0  0  0  0  0  0
    4.5479    0.2037    0.0000 C   0  0  0  0  0  0  0  0  0  0  0  0
    5.2638    0.6178    0.0000 C   0  0  0  0  0  0  0  0  0  0  0  0
    5.2638    1.4461    0.0000 C   0  0  0  0  0  0  0  0  0  0  0  0
    5.9796    1.8602    0.0000 C   0  0  0  0  0  0  0  0  0  0  0  0
    6.6954    1.4461    0.0000 C   0  0  0  0  0  0  0  0  0  0  0  0
    7.4172    1.8602    0.0000 N   0  0  0  0  0  0  0  0  0  0  0  0
    8.1330    1.4461    0.0000 C   0  0  0  0  0  0  0  0  0  0  0  0
    8.1330    0.6178    0.0000 C   0  0  0  0  0  0  0  0  0  0  0  0
    7.4172    0.2037    0.0000 C   0  0  0  0  0  0  0  0  0  0  0  0
    6.6954    0.6178    0.0000 C   0  0  0  0  0  0  0  0  0  0  0  0
    5.9796    0.2037    0.0000 C   0  0  0  0  0  0  0  0  0  0  0  0
  1  2  1  0
  2  7  2  0
  2  3  1  0
  3  4  2  0
  4  5  1  0
  5  6  2  0
  6  7  1  0
  7  8  1  0
  8 12  1  0
  8  9  2  0
  9 10  1  0
 10 11  1  0
 11 12  2  0
 12 13  1  0
 13 17  1  0
 13 14  1  0
 14 15  1  0
 15 16  1  0
 16 17  1  0
 17 18  1  0
 18 19  1  0
 19 28  1  0
 19 20  2  0
 20 21  1  0
 21 22  2  0
 22 27  1  0
 22 23  1  0
 23 24  2  0
 24 25  1  0
 25 26  2  0
 26 27  1  0
 27 28  2  0
M  END
>  <SMILES>  (43) 
Fc1ccccc1-c1c[nH]nc1C1CCCN1Cc1ccc2ncccc2c1

>  <CollectionName>  (43) 
emolecules

>  <LOG PLASMA PROTEIN BINDING (RAT) (% unbound)>  (43) 
0.460897842757

>  <Internal ID>  (43) 
Mol43

>  <Source>  (43) 
Biogen

$$$$
313516892
     RDKit          2D

 23 26  0  0  0  0  0  0  0  0999 V2000
    4.3398   -2.3753    0.0000 C   0  0  0  0  0  0  0  0  0  0  0  0
    3.5316   -2.2002    0.0000 C   0  0  0  0  0  0  0  0  0  0  0  0
    2.9758   -2.8125    0.0000 N   0  0  0  0  0  0  0  0  0  0  0  0
    2.1675   -2.6374    0.0000 C   0  0  0  0  0  0  0  0  0  0  0  0
    1.9151   -1.8498    0.0000 C   0  0  0  0  0  0  0  0  0  0  0  0
    2.4709   -1.2375    0.0000 C   0  0  0  0  0  0  0  0  0  0  0  0
    3.2792   -1.4126    0.0000 N   0  0  0  0  0  0  0  0  0  0  0  0
    2.2185   -0.4499    0.0000 C   0  0  0  0  0  0  0  0  0  0  0  0
    2.7096    0.2186    0.0000 C   0  0  0  0  0  0  0  0  0  0  0  0
    2.2185    0.8871    0.0000 N   0  0  0  0  0  0  0  0  0  0  0  0
    2.4709    1.6746    0.0000 C   0  0  0  0  0  0  0  0  0  0  0  0
    3.2792    1.8498    0.0000 C   0  0  0  0  0  0  0  0  0  0  0  0
    3.5316    2.6374    0.0000 C   0  0  0  0  0  0  0  0  0  0  0  0
    4.3398    2.8125    0.0000 C   0  0  0  0  0  0  0  0  0  0  0  0
    4.8956    2.2002    0.0000 C   0  0  0  0  0  0  0  0  0  0  0  0
    4.6432    1.4126    0.0000 C   0  0  0  0  0  0  0  0  0  0  0  0
    3.8350    1.2375    0.0000 C   0  0  0  0  0  0  0  0  0  0  0  0
    1.4317    0.6327    0.0000 C   0  0  0  0  0  0  0  0  0  0  0  0
    0.7158    1.0468    0.0000 C   0  0  0  0  0  0  0  0  0  0  0  0
    0.0000    0.6327    0.0000 N   0  0  0  0  0  0  0  0  0  0  0  0
    0.0000   -0.1955    0.0000 C   0  0  0  0  0  0  0  0  0  0  0  0
    0.7158   -0.6096    0.0000 C   0  0  0  0  0  0  0  0  0  0  0  0
    1.4317   -0.1955    0.0000 C   0  0  0  0  0  0  0  0  0  0  0  0
  1  2  1  0
  2  7  2  0
  2  3  1  0
  3  4  2  0
  4  5  1  0
  5  6  2  0
  6  7  1  0
  6  8  1  0
  8 23  1  0
  8  9  2  0
  9 10  1  0
 10 11  1  0
 11 12  1  0
 12 17  1  0
 12 13  2  0
 13 14  1  0
 14 15  2  0
 15 16  1  0
 16 17  2  0
 10 18  1  0
 18 23  2  0
 18 19  1  0
 19 20  2  0
 20 21  1  0
 21 22  2  0
 22 23  1  0
M  END
>  <SMILES>  (44) 
Cc1nccc(-c2cn(Cc3ccccc3)c3cnccc23)n1

>  <CollectionName>  (44) 
emolecules

>  <LOG PLASMA PROTEIN BINDING (RAT) (% unbound)>  (44) 
1.20744585398

>  <Internal ID>  (44) 
Mol44

>  <Source>  (44) 
Biogen

$$$$
168892617
     RDKit          2D

 31 35  0  0  0  0  0  0  0  0999 V2000
    0.7155   -1.7106    0.0000 C   0  0  0  0  0  0  0  0  0  0  0  0
    1.4317   -1.2971    0.0000 C   0  0  0  0  0  0  0  0  0  0  0  0
    1.4317   -0.4701    0.0000 C   0  0  0  0  0  0  0  0  0  0  0  0
    0.7158   -0.0560    0.0000 N   0  0  0  0  0  0  0  0  0  0  0  0
    0.7158    0.7722    0.0000 C   0  0  0  0  0  0  0  0  0  0  0  0
    0.0000    1.1863    0.0000 C   0  0  0  0  0  0  0  0  0  0  0  0
    1.4317    1.1863    0.0000 C   0  0  0  0  0  0  0  0  0  0  0  0
    2.1475    0.7722    0.0000 N   0  0  0  0  0  0  0  0  0  0  0  0
    2.9344    1.0266    0.0000 N   0  0  0  0  0  0  0  0  0  0  0  0
    3.4254    0.3581    0.0000 C   0  0  0  0  0  0  0  0  0  0  0  0
    2.9344   -0.3104    0.0000 C   0  0  0  0  0  0  0  0  0  0  0  0
    2.1475   -0.0560    0.0000 C   0  0  0  0  0  0  0  0  0  0  0  0
    4.2524    0.3581    0.0000 C   0  0  0  0  0  0  0  0  0  0  0  0
    4.6659    1.0743    0.0000 C   0  0  0  0  0  0  0  0  0  0  0  0
    5.4929    1.0743    0.0000 C   0  0  0  0  0  0  0  0  0  0  0  0
    5.9064    1.7905    0.0000 O   0  0  0  0  0  0  0  0  0  0  0  0
    5.9064    0.3581    0.0000 N   0  0  0  0  0  0  0  0  0  0  0  0
    6.7334    0.3581    0.0000 C   0  0  0  0  0  0  0  0  0  0  0  0
    7.1469   -0.3581    0.0000 C   0  0  0  0  0  0  0  0  0  0  0  0
    6.7334   -1.0743    0.0000 C   0  0  0  0  0  0  0  0  0  0  0  0
    5.9064   -1.0743    0.0000 C   0  0  0  0  0  0  0  0  0  0  0  0
    5.4929   -1.7905    0.0000 C   0  0  0  0  0  0  0  0  0  0  0  0
    5.4929   -0.3581    0.0000 C   0  0  0  0  0  0  0  0  0  0  0  0
    4.6659   -0.3581    0.0000 N   0  0  0  0  0  0  0  0  0  0  0  0
    7.9739   -0.3581    0.0000 C   0  0  0  0  0  0  0  0  0  0  0  0
    8.3874    0.3581    0.0000 C   0  0  0  0  0  0  0  0  0  0  0  0
    9.2144    0.3581    0.0000 C   0  0  0  0  0  0  0  0  0  0  0  0
    9.6279   -0.3581    0.0000 N   0  0  0  0  0  0  0  0  0  0  0  0
   10.4549   -0.3581    0.0000 C   0  0  0  0  0  0  0  0  0  0  0  0
    9.2144   -1.0743    0.0000 C   0  0  0  0  0  0  0  0  0  0  0  0
    8.3874   -1.0743    0.0000 C   0  0  0  0  0  0  0  0  0  0  0  0
  1  2  1  0
  2  3  1  0
  3 12  1  0
  3  4  2  0
  4  5  1  0
  5  6  1  0
  5  7  2  0
  7  8  1  0
  8 12  1  0
  8  9  1  0
  9 10  2  0
 10 11  1  0
 11 12  2  0
 10 13  1  0
 13 24  1  0
 13 14  2  0
 14 15  1  0
 15 16  2  0
 15 17  1  0
 17 23  1  0
 17 18  1  0
 18 19  2  0
 19 20  1  0
 20 21  2  0
 21 22  1  0
 21 23  1  0
 23 24  2  0
 19 25  1  0
 25 31  1  0
 25 26  1  0
 26 27  1  0
 27 28  1  0
 28 29  1  0
 28 30  1  0
 30 31  1  0
M  END
>  <SMILES>  (45) 
CCc1nc(C)cn2nc(-c3cc(=O)n4cc(C5CCN(C)CC5)cc(C)c4n3)cc12

>  <CollectionName>  (45) 
emolecules

>  <LOG PLASMA PROTEIN BINDING (RAT) (% unbound)>  (45) 
0.59361830813

>  <Internal ID>  (45) 
Mol45

>  <Source>  (45) 
Biogen

$$$$
313548577
     RDKit          2D

 17 19  0  0  1  0  0  0  0  0999 V2000
    1.6795   -1.3354    0.0000 C   0  0  0  0  0  0  0  0  0  0  0  0
    1.0670   -0.7798    0.0000 C   0  0  0  0  0  0  0  0  0  0  0  0
    0.2549   -0.6019    0.0000 C   0  0  0  0  0  0  0  0  0  0  0  0
    0.0000    0.1864    0.0000 N   0  0  0  0  0  0  0  0  0  0  0  0
    0.5513    0.8029    0.0000 C   0  0  0  0  0  0  0  0  0  0  0  0
    0.2915    1.5881    0.0000 O   0  0  0  0  0  0  0  0  0  0  0  0
    1.3633    0.6310    0.0000 C   0  0  0  0  0  0  0  0  0  0  0  0
    2.0391    1.1171    0.0000 C   0  0  0  0  0  0  0  0  0  0  0  0
    2.7089    0.6310    0.0000 C   0  0  0  0  0  0  0  0  0  0  0  0
    3.5210    0.8029    0.0000 C   0  0  0  0  0  0  0  0  0  0  0  0
    4.0723    0.1864    0.0000 C   0  0  0  0  0  0  0  0  0  0  0  0
    3.8174   -0.6019    0.0000 C   0  0  0  0  0  0  0  0  0  0  0  0
    4.3748   -1.2128    0.0000 Cl  0  0  0  0  0  0  0  0  0  0  0  0
    3.0053   -0.7798    0.0000 C   0  0  0  0  0  0  0  0  0  0  0  0
    2.7473   -1.5655    0.0000 C   0  0  0  0  0  0  0  0  0  0  0  0
    2.4540   -0.1633    0.0000 C   0  0  0  0  0  0  0  0  0  0  0  0
    1.6242   -0.1633    0.0000 N   0  0  0  0  0  0  0  0  0  0  0  0
  2  1  1  1
  2 17  1  0
  2  3  1  0
  3  4  1  0
  4  5  1  0
  5  6  2  0
  5  7  1  0
  7 17  1  0
  7  8  2  0
  8  9  1  0
  9 16  2  0
  9 10  1  0
 10 11  2  0
 11 12  1  0
 12 13  1  0
 12 14  2  0
 14 15  1  0
 14 16  1  0
 16 17  1  0
M  END
>  <SMILES>  (46) 
Cc1c(Cl)ccc2cc3n(c12)[C@@H](C)CNC3=O

>  <CollectionName>  (46) 
emolecules

>  <LOG PLASMA PROTEIN BINDING (RAT) (% unbound)>  (46) 
0.696793085082

>  <Internal ID>  (46) 
Mol46

>  <Source>  (46) 
Biogen

$$$$
49863827
     RDKit          2D

 29 33  0  0  1  0  0  0  0  0999 V2000
    0.7158   -0.6925    0.0000 N   0  0  0  0  0  0  0  0  0  0  0  0
    0.7158    0.1345    0.0000 C   0  0  0  0  0  0  0  0  0  0  0  0
    0.0000    0.5486    0.0000 N   0  0  0  0  0  0  0  0  0  0  0  0
    0.0000    1.3768    0.0000 C   0  0  0  0  0  0  0  0  0  0  0  0
    0.7158    1.7910    0.0000 N   0  0  0  0  0  0  0  0  0  0  0  0
    1.4317    1.3768    0.0000 C   0  0  0  0  0  0  0  0  0  0  0  0
    2.2185    1.6312    0.0000 N   0  0  0  0  0  0  0  0  0  0  0  0
    2.7096    0.9627    0.0000 N   0  0  0  0  0  0  0  0  0  0  0  0
    2.2185    0.2942    0.0000 C   0  0  0  0  0  0  0  0  0  0  0  0
    2.4709   -0.4933    0.0000 C   0  0  0  0  0  0  0  0  0  0  0  0
    1.9151   -1.1057    0.0000 C   0  0  0  0  0  0  0  0  0  0  0  0
    2.1675   -1.8932    0.0000 C   0  0  0  0  0  0  0  0  0  0  0  0
    2.9758   -2.0684    0.0000 C   0  0  0  0  0  0  0  0  0  0  0  0
    3.2282   -2.8560    0.0000 O   0  0  0  0  0  0  0  0  0  0  0  0
    4.0364   -3.0311    0.0000 C   0  0  0  0  0  0  0  0  0  0  0  0
    4.5922   -2.4188    0.0000 C   0  0  0  0  0  0  0  0  0  0  0  0
    5.4005   -2.5939    0.0000 C   0  0  0  0  0  0  0  0  0  0  0  0
    5.6529   -3.3815    0.0000 C   0  0  0  0  0  0  0  0  0  0  0  0
    5.0971   -3.9938    0.0000 C   0  0  0  0  0  0  0  0  0  0  0  0
    4.2888   -3.8187    0.0000 C   0  0  0  0  0  0  0  0  0  0  0  0
    3.5316   -1.4561    0.0000 C   0  0  0  0  0  0  0  0  0  0  0  0
    3.2792   -0.6685    0.0000 C   0  0  0  0  0  0  0  0  0  0  0  0
    1.4317    0.5486    0.0000 C   0  0  0  0  0  0  0  0  0  0  0  0
    2.4709    2.4188    0.0000 C   0  0  0  0  0  0  0  0  0  0  0  0
    3.2792    2.5939    0.0000 C   0  0  0  0  0  0  0  0  0  0  0  0
    3.5316    3.3815    0.0000 C   0  0  0  0  0  0  0  0  0  0  0  0
    2.9758    3.9938    0.0000 C   0  0  0  0  0  0  0  0  0  0  0  0
    2.1675    3.8187    0.0000 N   0  0  0  0  0  0  0  0  0  0  0  0
    1.9151    3.0311    0.0000 C   0  0  0  0  0  0  0  0  0  0  0  0
  1  2  1  0
  2 23  2  0
  2  3  1  0
  3  4  2  0
  4  5  1  0
  5  6  2  0
  6 23  1  0
  6  7  1  0
  7  8  1  0
  8  9  2  0
  9 10  1  0
 10 22  1  0
 10 11  2  0
 11 12  1  0
 12 13  2  0
 13 14  1  0
 14 15  1  0
 15 20  1  0
 15 16  2  0
 16 17  1  0
 17 18  2  0
 18 19  1  0
 19 20  2  0
 13 21  1  0
 21 22  2  0
  9 23  1  0
 24  7  1  1
 24 29  1  0
 24 25  1  0
 25 26  1  0
 26 27  1  0
 27 28  1  0
 28 29  1  0
M  END
>  <SMILES>  (47) 
Nc1ncnc2c1c(-c1ccc(Oc3ccccc3)cc1)nn2[C@@H]1CCCNC1

>  <CollectionName>  (47) 
emolecules

>  <LOG PLASMA PROTEIN BINDING (RAT) (% unbound)>  (47) 
0.846275242412

>  <Internal ID>  (47) 
Mol47

>  <Source>  (47) 
Biogen

$$$$
53790787
     RDKit          2D

 22 23  0  0  0  0  0  0  0  0999 V2000
   -0.5573    3.6042    0.0000 C   0  0  0  0  0  0  0  0  0  0  0  0
   -0.9708    2.8880    0.0000 C   0  0  0  0  0  0  0  0  0  0  0  0
   -0.5573    2.1718    0.0000 C   0  0  0  0  0  0  0  0  0  0  0  0
    0.2697    2.1718    0.0000 N   0  0  0  0  0  0  0  0  0  0  0  0
    0.6832    2.8880    0.0000 C   0  0  0  0  0  0  0  0  0  0  0  0
    0.6832    1.4556    0.0000 C   0  0  0  0  0  0  0  0  0  0  0  0
    1.5102    1.4556    0.0000 C   0  0  0  0  0  0  0  0  0  0  0  0
    1.9963    2.1246    0.0000 N   0  0  0  0  0  0  0  0  0  0  0  0
    2.7828    1.8691    0.0000 N   0  0  0  0  0  0  0  0  0  0  0  0
    2.7828    1.0421    0.0000 C   0  0  0  0  0  0  0  0  0  0  0  0
    3.4518    0.5560    0.0000 C   0  0  0  0  0  0  0  0  0  0  0  0
    1.9963    0.7865    0.0000 N   0  0  0  0  0  0  0  0  0  0  0  0
    1.7407   -0.0000    0.0000 C   0  0  0  0  0  0  0  0  0  0  0  0
   -1.7978    2.8880    0.0000 O   0  0  0  0  0  0  0  0  0  0  0  0
   -2.2113    3.6042    0.0000 C   0  0  0  0  0  0  0  0  0  0  0  0
   -3.0383    3.6042    0.0000 C   0  0  0  0  0  0  0  0  0  0  0  0
   -3.4518    4.3204    0.0000 C   0  0  0  0  0  0  0  0  0  0  0  0
   -3.0383    5.0366    0.0000 C   0  0  0  0  0  0  0  0  0  0  0  0
   -3.4518    5.7528    0.0000 Cl  0  0  0  0  0  0  0  0  0  0  0  0
   -2.2113    5.0366    0.0000 C   0  0  0  0  0  0  0  0  0  0  0  0
   -1.7978    5.7528    0.0000 Cl  0  0  0  0  0  0  0  0  0  0  0  0
   -1.7978    4.3204    0.0000 C   0  0  0  0  0  0  0  0  0  0  0  0
  1  2  1  0
  2  3  1  0
  3  4  1  0
  4  5  1  0
  4  6  1  0
  6  7  1  0
  7 12  1  0
  7  8  2  0
  8  9  1  0
  9 10  2  0
 10 11  1  0
 10 12  1  0
 12 13  1  0
  2 14  1  0
 14 15  1  0
 15 22  1  0
 15 16  2  0
 16 17  1  0
 17 18  2  0
 18 19  1  0
 18 20  1  0
 20 21  1  0
 20 22  2  0
M  END
>  <SMILES>  (48) 
Cc1nnc(CN(C)CC(C)Oc2ccc(Cl)c(Cl)c2)n1C

>  <CollectionName>  (48) 
emolecules

>  <LOG PLASMA PROTEIN BINDING (RAT) (% unbound)>  (48) 
1.11444417245

>  <Internal ID>  (48) 
Mol48

>  <Source>  (48) 
Biogen

$$$$
45816980
     RDKit          2D

 25 28  0  0  0  0  0  0  0  0999 V2000
    0.1150    5.0162    0.0000 C   0  0  0  0  0  0  0  0  0  0  0  0
    0.5285    4.3000    0.0000 O   0  0  0  0  0  0  0  0  0  0  0  0
    1.3555    4.3000    0.0000 C   0  0  0  0  0  0  0  0  0  0  0  0
    1.8416    4.9690    0.0000 N   0  0  0  0  0  0  0  0  0  0  0  0
    2.6281    4.7135    0.0000 N   0  0  0  0  0  0  0  0  0  0  0  0
    3.2972    5.1996    0.0000 C   0  0  0  0  0  0  0  0  0  0  0  0
    2.6281    3.8865    0.0000 C   0  0  0  0  0  0  0  0  0  0  0  0
    1.8416    3.6309    0.0000 C   0  0  0  0  0  0  0  0  0  0  0  0
    1.5861    2.8444    0.0000 C   0  0  0  0  0  0  0  0  0  0  0  0
    2.1394    2.2298    0.0000 O   0  0  0  0  0  0  0  0  0  0  0  0
    0.7771    2.6724    0.0000 N   0  0  0  0  0  0  0  0  0  0  0  0
    0.5216    1.8859    0.0000 C   0  0  0  0  0  0  0  0  0  0  0  0
    1.0749    1.2713    0.0000 C   0  0  0  0  0  0  0  0  0  0  0  0
    0.8194    0.4848    0.0000 C   0  0  0  0  0  0  0  0  0  0  0  0
    0.0105    0.3129    0.0000 C   0  0  0  0  0  0  0  0  0  0  0  0
   -0.5429    0.9274    0.0000 C   0  0  0  0  0  0  0  0  0  0  0  0
   -0.2874    1.7140    0.0000 C   0  0  0  0  0  0  0  0  0  0  0  0
   -1.3518    0.7555    0.0000 C   0  0  0  0  0  0  0  0  0  0  0  0
   -1.6882    0.0000    0.0000 C   0  0  0  0  0  0  0  0  0  0  0  0
   -2.5107    0.0864    0.0000 N   0  0  0  0  0  0  0  0  0  0  0  0
   -2.6826    0.8954    0.0000 C   0  0  0  0  0  0  0  0  0  0  0  0
   -3.2972    1.4487    0.0000 C   0  0  0  0  0  0  0  0  0  0  0  0
   -2.9608    2.2042    0.0000 C   0  0  0  0  0  0  0  0  0  0  0  0
   -2.1384    2.1178    0.0000 C   0  0  0  0  0  0  0  0  0  0  0  0
   -1.9664    1.3089    0.0000 N   0  0  0  0  0  0  0  0  0  0  0  0
  1  2  1  0
  2  3  1  0
  3  8  1  0
  3  4  2  0
  4  5  1  0
  5  6  1  0
  5  7  1  0
  7  8  2  0
  8  9  1  0
  9 10  2  0
  9 11  1  0
 11 12  1  0
 12 17  1  0
 12 13  2  0
 13 14  1  0
 14 15  2  0
 15 16  1  0
 16 17  2  0
 16 18  1  0
 18 25  1  0
 18 19  2  0
 19 20  1  0
 20 21  2  0
 21 25  1  0
 21 22  1  0
 22 23  1  0
 23 24  1  0
 24 25  1  0
M  END
>  <SMILES>  (49) 
COc1nn(C)cc1C(=O)Nc1cccc(-c2cnc3n2CCC3)c1

>  <CollectionName>  (49) 
emolecules

>  <LOG PLASMA PROTEIN BINDING (RAT) (% unbound)>  (49) 
0.685562611158

>  <Internal ID>  (49) 
Mol49

>  <Source>  (49) 
Biogen

$$$$
89942308
     RDKit          2D

 27 29  0  0  0  0  0  0  0  0999 V2000
    7.0339   -2.9182    0.0000 C   0  0  0  0  0  0  0  0  0  0  0  0
    6.6210   -2.2017    0.0000 O   0  0  0  0  0  0  0  0  0  0  0  0
    7.0351   -1.4858    0.0000 C   0  0  0  0  0  0  0  0  0  0  0  0
    7.8634   -1.4858    0.0000 C   0  0  0  0  0  0  0  0  0  0  0  0
    8.2775   -0.7700    0.0000 C   0  0  0  0  0  0  0  0  0  0  0  0
    9.1045   -0.7700    0.0000 F   0  0  0  0  0  0  0  0  0  0  0  0
    7.8634   -0.0541    0.0000 C   0  0  0  0  0  0  0  0  0  0  0  0
    7.0351   -0.0541    0.0000 C   0  0  0  0  0  0  0  0  0  0  0  0
    6.6210   -0.7700    0.0000 C   0  0  0  0  0  0  0  0  0  0  0  0
    5.7927   -0.7700    0.0000 C   0  0  0  0  0  0  0  0  0  0  0  0
    5.3786   -1.4858    0.0000 N   0  0  0  0  0  0  0  0  0  0  0  0
    4.5504   -1.4858    0.0000 C   0  0  0  0  0  0  0  0  0  0  0  0
    4.1362   -0.7700    0.0000 N   0  0  0  0  0  0  0  0  0  0  0  0
    4.5504   -0.0541    0.0000 C   0  0  0  0  0  0  0  0  0  0  0  0
    4.1362    0.6617    0.0000 N   0  0  0  0  0  0  0  0  0  0  0  0
    3.3092    0.6610    0.0000 C   0  0  0  0  0  0  0  0  0  0  0  0
    2.8964   -0.0556    0.0000 C   0  0  0  0  0  0  0  0  0  0  0  0
    2.0694   -0.0563    0.0000 C   0  0  0  0  0  0  0  0  0  0  0  0
    1.6552    0.6595    0.0000 C   0  0  0  0  0  0  0  0  0  0  0  0
    2.0681    1.3761    0.0000 C   0  0  0  0  0  0  0  0  0  0  0  0
    1.6540    2.0919    0.0000 C   0  0  0  0  0  0  0  0  0  0  0  0
    0.8270    2.0912    0.0000 S   0  0  0  0  0  0  0  0  0  0  0  0
    0.8263    2.9182    0.0000 C   0  0  0  0  0  0  0  0  0  0  0  0
    0.0000    2.0905    0.0000 N   0  0  0  0  0  0  0  0  0  0  0  0
    0.8277    1.2642    0.0000 O   0  0  0  0  0  0  0  0  0  0  0  0
    2.8951    1.3768    0.0000 C   0  0  0  0  0  0  0  0  0  0  0  0
    5.3786   -0.0541    0.0000 N   0  0  0  0  0  0  0  0  0  0  0  0
  1  2  1  0
  2  3  1  0
  3  9  2  0
  3  4  1  0
  4  5  2  0
  5  6  1  0
  5  7  1  0
  7  8  2  0
  8  9  1  0
  9 10  1  0
 10 27  1  0
 10 11  2  0
 11 12  1  0
 12 13  2  0
 13 14  1  0
 14 15  1  0
 15 16  1  0
 16 26  1  0
 16 17  2  0
 17 18  1  0
 18 19  2  0
 19 20  1  0
 20 21  1  0
 21 22  1  0
 22 23  1  0
 22 24  2  0
 22 25  2  0
 20 26  2  0
 14 27  2  0
M  END
>  <SMILES>  (50) 
COc1cc(F)ccc1-c1ncnc(Nc2cccc(CS(C)(=N)=O)c2)n1

>  <CollectionName>  (50) 
emolecules

>  <LOG PLASMA PROTEIN BINDING (RAT) (% unbound)>  (50) 
1.57460994134

>  <Internal ID>  (50) 
Mol50

>  <Source>  (50) 
Biogen

$$$$
48239418
     RDKit          2D

 22 24  0  0  0  0  0  0  0  0999 V2000
    4.2972    1.2405    0.0000 C   0  0  0  0  0  0  0  0  0  0  0  0
    4.2972    0.4135    0.0000 C   0  0  0  0  0  0  0  0  0  0  0  0
    5.0134    0.0000    0.0000 C   0  0  0  0  0  0  0  0  0  0  0  0
    5.0134   -0.8270    0.0000 N   0  0  0  0  0  0  0  0  0  0  0  0
    5.7296   -1.2405    0.0000 C   0  0  0  0  0  0  0  0  0  0  0  0
    6.4458   -0.8270    0.0000 C   0  0  0  0  0  0  0  0  0  0  0  0
    6.5323   -0.0045    0.0000 C   0  0  0  0  0  0  0  0  0  0  0  0
    7.3412    0.1674    0.0000 N   0  0  0  0  0  0  0  0  0  0  0  0
    7.7547   -0.5488    0.0000 C   0  0  0  0  0  0  0  0  0  0  0  0
    8.5772   -0.6352    0.0000 C   0  0  0  0  0  0  0  0  0  0  0  0
    7.2013   -1.1634    0.0000 S   0  0  0  0  0  0  0  0  0  0  0  0
    4.2972   -1.2405    0.0000 C   0  0  0  0  0  0  0  0  0  0  0  0
    3.5810   -0.8270    0.0000 C   0  0  0  0  0  0  0  0  0  0  0  0
    3.5810    0.0000    0.0000 C   0  0  0  0  0  0  0  0  0  0  0  0
    2.8648    0.4135    0.0000 N   0  0  0  0  0  0  0  0  0  0  0  0
    2.1486    0.0000    0.0000 C   0  0  0  0  0  0  0  0  0  0  0  0
    2.1486   -0.8270    0.0000 C   0  0  0  0  0  0  0  0  0  0  0  0
    1.4324   -1.2405    0.0000 N   0  0  0  0  0  0  0  0  0  0  0  0
    0.7162   -0.8270    0.0000 C   0  0  0  0  0  0  0  0  0  0  0  0
    0.7162   -0.0000    0.0000 C   0  0  0  0  0  0  0  0  0  0  0  0
    0.0000    0.4135    0.0000 Cl  0  0  0  0  0  0  0  0  0  0  0  0
    1.4324    0.4135    0.0000 N   0  0  0  0  0  0  0  0  0  0  0  0
  1  2  1  0
  2 14  1  0
  2  3  1  0
  3  4  1  0
  4  5  1  0
  5  6  1  0
  6 11  1  0
  6  7  2  0
  7  8  1  0
  8  9  2  0
  9 10  1  0
  9 11  1  0
  4 12  1  0
 12 13  1  0
 13 14  1  0
 14 15  1  0
 15 16  1  0
 16 22  1  0
 16 17  2  0
 17 18  1  0
 18 19  2  0
 19 20  1  0
 20 21  1  0
 20 22  2  0
M  END
>  <SMILES>  (51) 
Cc1ncc(CN2CCC(Nc3cncc(Cl)n3)C(C)C2)s1

>  <CollectionName>  (51) 
emolecules

>  <LOG PLASMA PROTEIN BINDING (RAT) (% unbound)>  (51) 
1.26422734776

>  <Internal ID>  (51) 
Mol51

>  <Source>  (51) 
Biogen

$$$$
139133
     RDKit          2D

 32 35  0  0  0  0  0  0  0  0999 V2000
    0.8295    0.6206    0.0000 C   0  0  0  0  0  0  0  0  0  0  0  0
    1.6565    0.6213    0.0000 N   0  0  0  0  0  0  0  0  0  0  0  0
    2.0694    1.3379    0.0000 C   0  0  0  0  0  0  0  0  0  0  0  0
    2.0706   -0.0945    0.0000 C   0  0  0  0  0  0  0  0  0  0  0  0
    1.6577   -0.8111    0.0000 O   0  0  0  0  0  0  0  0  0  0  0  0
    2.8976   -0.0938    0.0000 C   0  0  0  0  0  0  0  0  0  0  0  0
    2.4847   -0.8104    0.0000 C   0  0  0  0  0  0  0  0  0  0  0  0
    2.8989   -1.5262    0.0000 C   0  0  0  0  0  0  0  0  0  0  0  0
    3.7271   -1.5262    0.0000 C   0  0  0  0  0  0  0  0  0  0  0  0
    4.1412   -2.2421    0.0000 C   0  0  0  0  0  0  0  0  0  0  0  0
    3.7271   -2.9579    0.0000 C   0  0  0  0  0  0  0  0  0  0  0  0
    2.8989   -2.9579    0.0000 C   0  0  0  0  0  0  0  0  0  0  0  0
    2.4847   -2.2421    0.0000 C   0  0  0  0  0  0  0  0  0  0  0  0
    1.6565   -2.2421    0.0000 C   0  0  0  0  0  0  0  0  0  0  0  0
    1.2424   -2.9579    0.0000 C   0  0  0  0  0  0  0  0  0  0  0  0
    0.4141   -2.9579    0.0000 C   0  0  0  0  0  0  0  0  0  0  0  0
    0.0000   -2.2421    0.0000 C   0  0  0  0  0  0  0  0  0  0  0  0
    0.4141   -1.5262    0.0000 C   0  0  0  0  0  0  0  0  0  0  0  0
    1.2424   -1.5262    0.0000 C   0  0  0  0  0  0  0  0  0  0  0  0
    2.4835    0.6220    0.0000 C   0  0  0  0  0  0  0  0  0  0  0  0
    2.8964    1.3386    0.0000 C   0  0  0  0  0  0  0  0  0  0  0  0
    3.7234    1.3393    0.0000 N   0  0  0  0  0  0  0  0  0  0  0  0
    4.1375    0.6235    0.0000 C   0  0  0  0  0  0  0  0  0  0  0  0
    3.7246   -0.0931    0.0000 C   0  0  0  0  0  0  0  0  0  0  0  0
    4.1362    2.0559    0.0000 C   0  0  0  0  0  0  0  0  0  0  0  0
    3.7221    2.7717    0.0000 O   0  0  0  0  0  0  0  0  0  0  0  0
    4.9632    2.0566    0.0000 C   0  0  0  0  0  0  0  0  0  0  0  0
    5.4499    1.3880    0.0000 C   0  0  0  0  0  0  0  0  0  0  0  0
    6.2362    1.6442    0.0000 C   0  0  0  0  0  0  0  0  0  0  0  0
    6.2355    2.4712    0.0000 C   0  0  0  0  0  0  0  0  0  0  0  0
    6.9041    2.9579    0.0000 C   0  0  0  0  0  0  0  0  0  0  0  0
    5.4488    2.7261    0.0000 S   0  0  0  0  0  0  0  0  0  0  0  0
  1  2  1  0
  2  3  1  0
  2  4  1  0
  4  5  2  0
  4  6  1  0
  6 24  1  0
  6  7  1  0
  7  8  1  0
  8 13  1  0
  8  9  2  0
  9 10  1  0
 10 11  2  0
 11 12  1  0
 12 13  2  0
 13 14  1  0
 14 19  1  0
 14 15  2  0
 15 16  1  0
 16 17  2  0
 17 18  1  0
 18 19  2  0
  6 20  1  0
 20 21  1  0
 21 22  1  0
 22 23  1  0
 23 24  1  0
 22 25  1  0
 25 26  2  0
 25 27  1  0
 27 32  1  0
 27 28  2  0
 28 29  1  0
 29 30  2  0
 30 31  1  0
 30 32  1  0
M  END
>  <SMILES>  (52) 
Cc1ccc(C(=O)N2CCC(Cc3ccccc3-c3ccccc3)(C(=O)N(C)C)CC2)s1

>  <CollectionName>  (52) 
emolecules

>  <LOG PLASMA PROTEIN BINDING (RAT) (% unbound)>  (52) 
-0.590066876669

>  <Internal ID>  (52) 
Mol52

>  <Source>  (52) 
Biogen

$$$$
89942282
     RDKit          2D

 42 47  0  0  0  0  0  0  0  0999 V2000
    9.9740    1.7447    0.0000 C   0  0  0  0  0  0  0  0  0  0  0  0
    9.5605    2.4609    0.0000 C   0  0  0  0  0  0  0  0  0  0  0  0
    8.7335    2.4609    0.0000 C   0  0  0  0  0  0  0  0  0  0  0  0
    8.2425    3.1295    0.0000 N   0  0  0  0  0  0  0  0  0  0  0  0
    7.4557    2.8751    0.0000 C   0  0  0  0  0  0  0  0  0  0  0  0
    6.7398    3.2892    0.0000 C   0  0  0  0  0  0  0  0  0  0  0  0
    6.7398    4.1162    0.0000 C   0  0  0  0  0  0  0  0  0  0  0  0
    6.0240    2.8751    0.0000 C   0  0  0  0  0  0  0  0  0  0  0  0
    6.0240    2.0468    0.0000 C   0  0  0  0  0  0  0  0  0  0  0  0
    6.7398    1.6327    0.0000 C   0  0  0  0  0  0  0  0  0  0  0  0
    7.4557    2.0468    0.0000 N   0  0  0  0  0  0  0  0  0  0  0  0
    8.2425    1.7924    0.0000 C   0  0  0  0  0  0  0  0  0  0  0  0
    8.4949    1.0049    0.0000 N   0  0  0  0  0  0  0  0  0  0  0  0
    9.3031    0.8297    0.0000 C   0  0  0  0  0  0  0  0  0  0  0  0
    7.9391    0.3925    0.0000 C   0  0  0  0  0  0  0  0  0  0  0  0
    8.1078   -0.4171    0.0000 N   0  0  0  0  0  0  0  0  0  0  0  0
    7.3900   -0.8277    0.0000 C   0  0  0  0  0  0  0  0  0  0  0  0
    6.7776   -0.2719    0.0000 C   0  0  0  0  0  0  0  0  0  0  0  0
    7.1170    0.4823    0.0000 S   0  0  0  0  0  0  0  0  0  0  0  0
    5.9680   -0.4406    0.0000 C   0  0  0  0  0  0  0  0  0  0  0  0
    5.1584   -0.6093    0.0000 N   0  0  0  0  0  0  0  0  0  0  0  0
    7.3002   -1.6498    0.0000 C   0  0  0  0  0  0  0  0  0  0  0  0
    7.9673   -2.1386    0.0000 C   0  0  0  0  0  0  0  0  0  0  0  0
    7.8776   -2.9607    0.0000 C   0  0  0  0  0  0  0  0  0  0  0  0
    7.1208   -3.2941    0.0000 C   0  0  0  0  0  0  0  0  0  0  0  0
    7.0310   -4.1162    0.0000 F   0  0  0  0  0  0  0  0  0  0  0  0
    6.4537   -2.8053    0.0000 C   0  0  0  0  0  0  0  0  0  0  0  0
    6.5434   -1.9832    0.0000 C   0  0  0  0  0  0  0  0  0  0  0  0
    5.3081    1.6327    0.0000 N   0  0  0  0  0  0  0  0  0  0  0  0
    5.3089    0.8057    0.0000 C   0  0  0  0  0  0  0  0  0  0  0  0
    4.5930    0.3916    0.0000 C   0  0  0  0  0  0  0  0  0  0  0  0
    3.8764    0.8045    0.0000 N   0  0  0  0  0  0  0  0  0  0  0  0
    3.1606    0.3903    0.0000 C   0  0  0  0  0  0  0  0  0  0  0  0
    2.4440    0.8032    0.0000 C   0  0  0  0  0  0  0  0  0  0  0  0
    2.4433    1.6302    0.0000 O   0  0  0  0  0  0  0  0  0  0  0  0
    1.7282    0.3891    0.0000 N   0  0  0  0  0  0  0  0  0  0  0  0
    1.5148   -0.4099    0.0000 C   0  0  0  0  0  0  0  0  0  0  0  0
    0.7158   -0.1966    0.0000 C   0  0  0  0  0  0  0  0  0  0  0  0
    0.0000   -0.6107    0.0000 O   0  0  0  0  0  0  0  0  0  0  0  0
    0.9292    0.6024    0.0000 C   0  0  0  0  0  0  0  0  0  0  0  0
    3.8757    1.6314    0.0000 C   0  0  0  0  0  0  0  0  0  0  0  0
    4.5916    2.0456    0.0000 C   0  0  0  0  0  0  0  0  0  0  0  0
  1  2  1  0
  2  3  1  0
  3 12  2  0
  3  4  1  0
  4  5  2  0
  5 11  1  0
  5  6  1  0
  6  7  1  0
  6  8  2  0
  8  9  1  0
  9 10  2  0
 10 11  1  0
 11 12  1  0
 12 13  1  0
 13 14  1  0
 13 15  1  0
 15 19  1  0
 15 16  2  0
 16 17  1  0
 17 18  2  0
 18 19  1  0
 18 20  1  0
 20 21  3  0
 17 22  1  0
 22 28  1  0
 22 23  2  0
 23 24  1  0
 24 25  2  0
 25 26  1  0
 25 27  1  0
 27 28  2  0
  9 29  1  0
 29 42  1  0
 29 30  1  0
 30 31  1  0
 31 32  1  0
 32 33  1  0
 33 34  1  0
 34 35  2  0
 34 36  1  0
 36 40  1  0
 36 37  1  0
 37 38  1  0
 38 39  1  0
 38 40  1  0
 32 41  1  0
 41 42  1  0
M  END
>  <SMILES>  (53) 
CCc1nc2c(C)cc(N3CCN(CC(=O)N4CC(O)C4)CC3)cn2c1N(C)c1nc(-c2ccc(F)cc2)c(C#N)s1

>  <CollectionName>  (53) 
emolecules

>  <LOG PLASMA PROTEIN BINDING (RAT) (% unbound)>  (53) 
-0.434152181326

>  <Internal ID>  (53) 
Mol53

>  <Source>  (53) 
Biogen

$$$$
28294753
     RDKit          2D

 23 25  0  0  1  0  0  0  0  0999 V2000
    4.9588   -1.5039    0.0000 C   0  0  0  0  0  0  0  0  0  0  0  0
    4.2972   -1.5039    0.0000 C   0  0  0  0  0  0  0  0  0  0  0  0
    3.5810   -1.9174    0.0000 C   0  0  0  0  0  0  0  0  0  0  0  0
    2.8648   -1.5039    0.0000 C   0  0  0  0  0  0  0  0  0  0  0  0
    2.8648   -0.6769    0.0000 N   0  0  0  0  0  0  0  0  0  0  0  0
    3.5810   -0.2634    0.0000 C   0  0  0  0  0  0  0  0  0  0  0  0
    4.2972   -0.6769    0.0000 C   0  0  0  0  0  0  0  0  0  0  0  0
    5.0134   -0.2634    0.0000 N   0  0  0  0  0  0  0  0  0  0  0  0
    5.7296   -0.6769    0.0000 C   0  0  0  0  0  0  0  0  0  0  0  0
    5.0134    0.5636    0.0000 C   0  0  0  0  0  0  0  0  0  0  0  0
    4.2976    0.9777    0.0000 N   0  0  0  0  0  0  0  0  0  0  0  0
    4.2976    1.8060    0.0000 C   0  0  0  0  0  0  0  0  0  0  0  0
    5.0134    2.2201    0.0000 N   0  0  0  0  0  0  0  0  0  0  0  0
    5.7293    1.8060    0.0000 C   0  0  0  0  0  0  0  0  0  0  0  0
    6.5161    2.0604    0.0000 N   0  0  0  0  0  0  0  0  0  0  0  0
    7.0071    1.3919    0.0000 C   0  0  0  0  0  0  0  0  0  0  0  0
    6.5161    0.7233    0.0000 C   0  0  0  0  0  0  0  0  0  0  0  0
    5.7293    0.9777    0.0000 C   0  0  0  0  0  0  0  0  0  0  0  0
    2.1486   -0.2634    0.0000 C   0  0  0  0  0  0  0  0  0  0  0  0
    2.1486    0.5636    0.0000 O   0  0  0  0  0  0  0  0  0  0  0  0
    1.4324   -0.6769    0.0000 C   0  0  0  0  0  0  0  0  0  0  0  0
    0.7162   -0.2634    0.0000 C   0  0  0  0  0  0  0  0  0  0  0  0
    0.0000    0.1501    0.0000 N   0  0  0  0  0  0  0  0  0  0  0  0
  2  1  1  6
  2  7  1  0
  2  3  1  0
  3  4  1  0
  4  5  1  0
  5  6  1  0
  6  7  1  0
  7  8  1  6
  8  9  1  0
  8 10  1  0
 10 18  1  0
 10 11  2  0
 11 12  1  0
 12 13  2  0
 13 14  1  0
 14 18  2  0
 14 15  1  0
 15 16  1  0
 16 17  2  0
 17 18  1  0
  5 19  1  0
 19 20  2  0
 19 21  1  0
 21 22  1  0
 22 23  3  0
M  END
>  <SMILES>  (54) 
C[C@@H]1CCN(C(=O)CC#N)C[C@@H]1N(C)c1ncnc2[nH]ccc12

>  <CollectionName>  (54) 
emolecules

>  <LOG PLASMA PROTEIN BINDING (RAT) (% unbound)>  (54) 
1.74712425482

>  <Internal ID>  (54) 
Mol54

>  <Source>  (54) 
Biogen

$$$$
139117
     RDKit          2D

 31 34  0  0  0  0  0  0  0  0999 V2000
    0.8295   -0.7137    0.0000 C   0  0  0  0  0  0  0  0  0  0  0  0
    1.6565   -0.7144    0.0000 N   0  0  0  0  0  0  0  0  0  0  0  0
    2.0694   -1.4310    0.0000 C   0  0  0  0  0  0  0  0  0  0  0  0
    2.0706    0.0014    0.0000 C   0  0  0  0  0  0  0  0  0  0  0  0
    1.6577    0.7180    0.0000 O   0  0  0  0  0  0  0  0  0  0  0  0
    2.8976    0.0007    0.0000 C   0  0  0  0  0  0  0  0  0  0  0  0
    2.4847    0.7173    0.0000 C   0  0  0  0  0  0  0  0  0  0  0  0
    2.8989    1.4331    0.0000 C   0  0  0  0  0  0  0  0  0  0  0  0
    3.7271    1.4331    0.0000 C   0  0  0  0  0  0  0  0  0  0  0  0
    4.1412    2.1490    0.0000 C   0  0  0  0  0  0  0  0  0  0  0  0
    3.7271    2.8648    0.0000 C   0  0  0  0  0  0  0  0  0  0  0  0
    2.8989    2.8648    0.0000 C   0  0  0  0  0  0  0  0  0  0  0  0
    2.4847    2.1490    0.0000 C   0  0  0  0  0  0  0  0  0  0  0  0
    1.6565    2.1490    0.0000 C   0  0  0  0  0  0  0  0  0  0  0  0
    1.2424    1.4331    0.0000 C   0  0  0  0  0  0  0  0  0  0  0  0
    0.4141    1.4331    0.0000 C   0  0  0  0  0  0  0  0  0  0  0  0
    0.0000    2.1490    0.0000 C   0  0  0  0  0  0  0  0  0  0  0  0
    0.4141    2.8648    0.0000 C   0  0  0  0  0  0  0  0  0  0  0  0
    1.2424    2.8648    0.0000 C   0  0  0  0  0  0  0  0  0  0  0  0
    2.4835   -0.7151    0.0000 C   0  0  0  0  0  0  0  0  0  0  0  0
    2.8964   -1.4317    0.0000 C   0  0  0  0  0  0  0  0  0  0  0  0
    3.7234   -1.4324    0.0000 N   0  0  0  0  0  0  0  0  0  0  0  0
    4.1375   -0.7166    0.0000 C   0  0  0  0  0  0  0  0  0  0  0  0
    3.7246   -0.0000    0.0000 C   0  0  0  0  0  0  0  0  0  0  0  0
    4.1362   -2.1490    0.0000 C   0  0  0  0  0  0  0  0  0  0  0  0
    3.7221   -2.8648    0.0000 O   0  0  0  0  0  0  0  0  0  0  0  0
    4.9632   -2.1497    0.0000 C   0  0  0  0  0  0  0  0  0  0  0  0
    5.4488   -2.8192    0.0000 C   0  0  0  0  0  0  0  0  0  0  0  0
    6.2355   -2.5643    0.0000 C   0  0  0  0  0  0  0  0  0  0  0  0
    6.2362   -1.7373    0.0000 C   0  0  0  0  0  0  0  0  0  0  0  0
    5.4499   -1.4811    0.0000 O   0  0  0  0  0  0  0  0  0  0  0  0
  1  2  1  0
  2  3  1  0
  2  4  1  0
  4  5  2  0
  4  6  1  0
  6 24  1  0
  6  7  1  0
  7  8  1  0
  8 13  1  0
  8  9  2  0
  9 10  1  0
 10 11  2  0
 11 12  1  0
 12 13  2  0
 13 14  1  0
 14 19  1  0
 14 15  2  0
 15 16  1  0
 16 17  2  0
 17 18  1  0
 18 19  2  0
  6 20  1  0
 20 21  1  0
 21 22  1  0
 22 23  1  0
 23 24  1  0
 22 25  1  0
 25 26  2  0
 25 27  1  0
 27 31  1  0
 27 28  1  0
 28 29  1  0
 29 30  1  0
 30 31  1  0
M  END
>  <SMILES>  (55) 
CN(C)C(=O)C1(Cc2ccccc2-c2ccccc2)CCN(C(=O)C2CCCO2)CC1

>  <CollectionName>  (55) 
emolecules

>  <LOG PLASMA PROTEIN BINDING (RAT) (% unbound)>  (55) 
1.26571381064

>  <Internal ID>  (55) 
Mol55

>  <Source>  (55) 
Biogen

$$$$
202525
     RDKit          2D

 32 35  0  0  0  0  0  0  0  0999 V2000
    4.1350   -4.6548    0.0000 C   0  0  0  0  0  0  0  0  0  0  0  0
    3.7221   -3.9382    0.0000 C   0  0  0  0  0  0  0  0  0  0  0  0
    2.8951   -3.9375    0.0000 O   0  0  0  0  0  0  0  0  0  0  0  0
    4.1362   -3.2224    0.0000 N   0  0  0  0  0  0  0  0  0  0  0  0
    3.7234   -2.5058    0.0000 C   0  0  0  0  0  0  0  0  0  0  0  0
    2.8964   -2.5051    0.0000 C   0  0  0  0  0  0  0  0  0  0  0  0
    2.4835   -1.7885    0.0000 C   0  0  0  0  0  0  0  0  0  0  0  0
    2.8976   -1.0727    0.0000 C   0  0  0  0  0  0  0  0  0  0  0  0
    3.7246   -1.0734    0.0000 C   0  0  0  0  0  0  0  0  0  0  0  0
    4.1375   -1.7900    0.0000 C   0  0  0  0  0  0  0  0  0  0  0  0
    2.4847   -0.3561    0.0000 C   0  0  0  0  0  0  0  0  0  0  0  0
    1.6577   -0.3554    0.0000 O   0  0  0  0  0  0  0  0  0  0  0  0
    2.8989    0.3597    0.0000 N   0  0  0  0  0  0  0  0  0  0  0  0
    3.7271    0.3597    0.0000 C   0  0  0  0  0  0  0  0  0  0  0  0
    4.1412    1.0756    0.0000 C   0  0  0  0  0  0  0  0  0  0  0  0
    3.7271    1.7914    0.0000 C   0  0  0  0  0  0  0  0  0  0  0  0
    2.8989    1.7914    0.0000 C   0  0  0  0  0  0  0  0  0  0  0  0
    2.4847    1.0756    0.0000 C   0  0  0  0  0  0  0  0  0  0  0  0
    1.6565    1.0756    0.0000 C   0  0  0  0  0  0  0  0  0  0  0  0
    1.2424    0.3597    0.0000 N   0  0  0  0  0  0  0  0  0  0  0  0
    0.4141    0.3597    0.0000 C   0  0  0  0  0  0  0  0  0  0  0  0
    0.0000   -0.3561    0.0000 N   0  0  0  0  0  0  0  0  0  0  0  0
    0.0000    1.0756    0.0000 N   0  0  0  0  0  0  0  0  0  0  0  0
    0.4141    1.7914    0.0000 C   0  0  0  0  0  0  0  0  0  0  0  0
    1.2424    1.7914    0.0000 C   0  0  0  0  0  0  0  0  0  0  0  0
    1.6565    2.5072    0.0000 C   0  0  0  0  0  0  0  0  0  0  0  0
    1.2436    3.2238    0.0000 C   0  0  0  0  0  0  0  0  0  0  0  0
    1.6577    3.9397    0.0000 C   0  0  0  0  0  0  0  0  0  0  0  0
    2.4847    3.9389    0.0000 C   0  0  0  0  0  0  0  0  0  0  0  0
    2.8989    4.6548    0.0000 Cl  0  0  0  0  0  0  0  0  0  0  0  0
    2.8976    3.2224    0.0000 C   0  0  0  0  0  0  0  0  0  0  0  0
    2.4835    2.5065    0.0000 C   0  0  0  0  0  0  0  0  0  0  0  0
  1  2  1  0
  2  3  2  0
  2  4  1  0
  4  5  1  0
  5 10  2  0
  5  6  1  0
  6  7  2  0
  7  8  1  0
  8  9  2  0
  9 10  1  0
  8 11  1  0
 11 12  2  0
 11 13  1  0
 13 18  1  0
 13 14  1  0
 14 15  1  0
 15 16  1  0
 16 17  1  0
 17 18  1  0
 18 19  1  0
 19 25  1  0
 19 20  2  0
 20 21  1  0
 21 22  1  0
 21 23  2  0
 23 24  1  0
 24 25  2  0
 25 26  1  0
 26 32  1  0
 26 27  2  0
 27 28  1  0
 28 29  2  0
 29 30  1  0
 29 31  1  0
 31 32  2  0
M  END
>  <SMILES>  (56) 
CC(=O)Nc1ccc(C(=O)N2CCCCC2c2nc(N)ncc2-c2ccc(Cl)cc2)cc1

>  <CollectionName>  (56) 
emolecules

>  <LOG PLASMA PROTEIN BINDING (RAT) (% unbound)>  (56) 
0.549861188472

>  <Internal ID>  (56) 
Mol56

>  <Source>  (56) 
Biogen

$$$$
202527
     RDKit          2D

 32 35  0  0  0  0  0  0  0  0999 V2000
    4.1350   -4.6555    0.0000 C   0  0  0  0  0  0  0  0  0  0  0  0
    3.7221   -3.9389    0.0000 C   0  0  0  0  0  0  0  0  0  0  0  0
    2.8951   -3.9382    0.0000 O   0  0  0  0  0  0  0  0  0  0  0  0
    4.1362   -3.2231    0.0000 N   0  0  0  0  0  0  0  0  0  0  0  0
    3.7234   -2.5065    0.0000 C   0  0  0  0  0  0  0  0  0  0  0  0
    2.8964   -2.5058    0.0000 C   0  0  0  0  0  0  0  0  0  0  0  0
    2.4835   -1.7892    0.0000 C   0  0  0  0  0  0  0  0  0  0  0  0
    2.8976   -1.0734    0.0000 C   0  0  0  0  0  0  0  0  0  0  0  0
    3.7246   -1.0741    0.0000 C   0  0  0  0  0  0  0  0  0  0  0  0
    4.1375   -1.7907    0.0000 C   0  0  0  0  0  0  0  0  0  0  0  0
    2.4847   -0.3568    0.0000 C   0  0  0  0  0  0  0  0  0  0  0  0
    1.6577   -0.3561    0.0000 O   0  0  0  0  0  0  0  0  0  0  0  0
    2.8989    0.3590    0.0000 N   0  0  0  0  0  0  0  0  0  0  0  0
    3.7271    0.3590    0.0000 C   0  0  0  0  0  0  0  0  0  0  0  0
    4.1412    1.0748    0.0000 C   0  0  0  0  0  0  0  0  0  0  0  0
    3.7271    1.7907    0.0000 C   0  0  0  0  0  0  0  0  0  0  0  0
    2.8989    1.7907    0.0000 C   0  0  0  0  0  0  0  0  0  0  0  0
    2.4847    1.0748    0.0000 C   0  0  0  0  0  0  0  0  0  0  0  0
    1.6565    1.0748    0.0000 C   0  0  0  0  0  0  0  0  0  0  0  0
    1.2424    0.3590    0.0000 N   0  0  0  0  0  0  0  0  0  0  0  0
    0.4141    0.3590    0.0000 C   0  0  0  0  0  0  0  0  0  0  0  0
    0.0000   -0.3568    0.0000 N   0  0  0  0  0  0  0  0  0  0  0  0
    0.0000    1.0748    0.0000 N   0  0  0  0  0  0  0  0  0  0  0  0
    0.4141    1.7907    0.0000 C   0  0  0  0  0  0  0  0  0  0  0  0
    1.2424    1.7907    0.0000 C   0  0  0  0  0  0  0  0  0  0  0  0
    1.6565    2.5065    0.0000 C   0  0  0  0  0  0  0  0  0  0  0  0
    2.4835    2.5058    0.0000 C   0  0  0  0  0  0  0  0  0  0  0  0
    2.8976    3.2217    0.0000 C   0  0  0  0  0  0  0  0  0  0  0  0
    2.4847    3.9382    0.0000 C   0  0  0  0  0  0  0  0  0  0  0  0
    1.6577    3.9389    0.0000 C   0  0  0  0  0  0  0  0  0  0  0  0
    1.2449    4.6555    0.0000 Cl  0  0  0  0  0  0  0  0  0  0  0  0
    1.2436    3.2231    0.0000 C   0  0  0  0  0  0  0  0  0  0  0  0
  1  2  1  0
  2  3  2  0
  2  4  1  0
  4  5  1  0
  5 10  2  0
  5  6  1  0
  6  7  2  0
  7  8  1  0
  8  9  2  0
  9 10  1  0
  8 11  1  0
 11 12  2  0
 11 13  1  0
 13 18  1  0
 13 14  1  0
 14 15  1  0
 15 16  1  0
 16 17  1  0
 17 18  1  0
 18 19  1  0
 19 25  1  0
 19 20  2  0
 20 21  1  0
 21 22  1  0
 21 23  2  0
 23 24  1  0
 24 25  2  0
 25 26  1  0
 26 32  1  0
 26 27  2  0
 27 28  1  0
 28 29  2  0
 29 30  1  0
 30 31  1  0
 30 32  2  0
M  END
>  <SMILES>  (57) 
CC(=O)Nc1ccc(C(=O)N2CCCCC2c2nc(N)ncc2-c2cccc(Cl)c2)cc1

>  <CollectionName>  (57) 
emolecules

>  <LOG PLASMA PROTEIN BINDING (RAT) (% unbound)>  (57) 
0.584331224368

>  <Internal ID>  (57) 
Mol57

>  <Source>  (57) 
Biogen

$$$$
31929526
     RDKit          2D

 24 26  0  0  0  0  0  0  0  0999 V2000
    7.4492   -1.8455    0.0000 F   0  0  0  0  0  0  0  0  0  0  0  0
    7.4492   -1.0185    0.0000 C   0  0  0  0  0  0  0  0  0  0  0  0
    8.2762   -1.0185    0.0000 F   0  0  0  0  0  0  0  0  0  0  0  0
    7.4492   -0.1915    0.0000 F   0  0  0  0  0  0  0  0  0  0  0  0
    6.6222   -1.0185    0.0000 C   0  0  0  0  0  0  0  0  0  0  0  0
    6.2087   -1.7347    0.0000 C   0  0  0  0  0  0  0  0  0  0  0  0
    5.3817   -1.7347    0.0000 C   0  0  0  0  0  0  0  0  0  0  0  0
    4.9682   -1.0185    0.0000 N   0  0  0  0  0  0  0  0  0  0  0  0
    5.3817   -0.3023    0.0000 C   0  0  0  0  0  0  0  0  0  0  0  0
    4.9682    0.4139    0.0000 N   0  0  0  0  0  0  0  0  0  0  0  0
    4.1412    0.4139    0.0000 C   0  0  0  0  0  0  0  0  0  0  0  0
    3.7271   -0.3020    0.0000 C   0  0  0  0  0  0  0  0  0  0  0  0
    2.8989   -0.3020    0.0000 C   0  0  0  0  0  0  0  0  0  0  0  0
    2.4847    0.4139    0.0000 C   0  0  0  0  0  0  0  0  0  0  0  0
    2.8989    1.1297    0.0000 N   0  0  0  0  0  0  0  0  0  0  0  0
    3.7271    1.1297    0.0000 C   0  0  0  0  0  0  0  0  0  0  0  0
    1.6565    0.4139    0.0000 N   0  0  0  0  0  0  0  0  0  0  0  0
    1.2424   -0.3020    0.0000 C   0  0  0  0  0  0  0  0  0  0  0  0
    0.4141   -0.3020    0.0000 C   0  0  0  0  0  0  0  0  0  0  0  0
    0.0000    0.4139    0.0000 N   0  0  0  0  0  0  0  0  0  0  0  0
    0.4141    1.1297    0.0000 C   0  0  0  0  0  0  0  0  0  0  0  0
    0.0000    1.8455    0.0000 O   0  0  0  0  0  0  0  0  0  0  0  0
    1.2424    1.1297    0.0000 C   0  0  0  0  0  0  0  0  0  0  0  0
    6.2087   -0.3023    0.0000 N   0  0  0  0  0  0  0  0  0  0  0  0
  1  2  1  0
  2  3  1  0
  2  4  1  0
  2  5  1  0
  5 24  2  0
  5  6  1  0
  6  7  2  0
  7  8  1  0
  8  9  2  0
  9 10  1  0
 10 11  1  0
 11 16  1  0
 11 12  2  0
 12 13  1  0
 13 14  2  0
 14 15  1  0
 15 16  2  0
 14 17  1  0
 17 23  1  0
 17 18  1  0
 18 19  1  0
 19 20  1  0
 20 21  1  0
 21 22  2  0
 21 23  1  0
  9 24  1  0
M  END
>  <SMILES>  (58) 
O=C1CN(c2ccc(Nc3nccc(C(F)(F)F)n3)cn2)CCN1

>  <CollectionName>  (58) 
emolecules

>  <LOG PLASMA PROTEIN BINDING (RAT) (% unbound)>  (58) 
1.43349781482

>  <Internal ID>  (58) 
Mol58

>  <Source>  (58) 
Biogen

$$$$
189638257
     RDKit          2D

 28 31  0  0  0  0  0  0  0  0999 V2000
    0.3037   -1.1332    0.0000 F   0  0  0  0  0  0  0  0  0  0  0  0
    0.7166   -0.4166    0.0000 C   0  0  0  0  0  0  0  0  0  0  0  0
    0.0000   -0.0037    0.0000 F   0  0  0  0  0  0  0  0  0  0  0  0
    1.1294    0.2999    0.0000 F   0  0  0  0  0  0  0  0  0  0  0  0
    1.4331   -0.8295    0.0000 C   0  0  0  0  0  0  0  0  0  0  0  0
    1.4338   -1.6565    0.0000 C   0  0  0  0  0  0  0  0  0  0  0  0
    2.1504   -2.0694    0.0000 C   0  0  0  0  0  0  0  0  0  0  0  0
    2.8663   -1.6552    0.0000 C   0  0  0  0  0  0  0  0  0  0  0  0
    2.8655   -0.8282    0.0000 C   0  0  0  0  0  0  0  0  0  0  0  0
    2.1490   -0.4154    0.0000 C   0  0  0  0  0  0  0  0  0  0  0  0
    2.1482    0.4116    0.0000 C   0  0  0  0  0  0  0  0  0  0  0  0
    2.8641    0.8258    0.0000 N   0  0  0  0  0  0  0  0  0  0  0  0
    2.8634    1.6528    0.0000 C   0  0  0  0  0  0  0  0  0  0  0  0
    2.1468    2.0656    0.0000 C   0  0  0  0  0  0  0  0  0  0  0  0
    1.4310    1.6515    0.0000 N   0  0  0  0  0  0  0  0  0  0  0  0
    1.4317    0.8245    0.0000 C   0  0  0  0  0  0  0  0  0  0  0  0
    0.7158    0.4104    0.0000 O   0  0  0  0  0  0  0  0  0  0  0  0
    3.5807    0.4129    0.0000 C   0  0  0  0  0  0  0  0  0  0  0  0
    3.5814   -0.4141    0.0000 O   0  0  0  0  0  0  0  0  0  0  0  0
    4.2965    0.8270    0.0000 C   0  0  0  0  0  0  0  0  0  0  0  0
    4.2965    1.6552    0.0000 C   0  0  0  0  0  0  0  0  0  0  0  0
    5.0123    2.0694    0.0000 C   0  0  0  0  0  0  0  0  0  0  0  0
    5.7282    1.6552    0.0000 C   0  0  0  0  0  0  0  0  0  0  0  0
    6.5150    1.9096    0.0000 N   0  0  0  0  0  0  0  0  0  0  0  0
    7.0060    1.2411    0.0000 C   0  0  0  0  0  0  0  0  0  0  0  0
    6.5150    0.5726    0.0000 C   0  0  0  0  0  0  0  0  0  0  0  0
    5.7282    0.8270    0.0000 N   0  0  0  0  0  0  0  0  0  0  0  0
    5.0123    0.4129    0.0000 C   0  0  0  0  0  0  0  0  0  0  0  0
  1  2  1  0
  2  3  1  0
  2  4  1  0
  2  5  1  0
  5 10  2  0
  5  6  1  0
  6  7  2  0
  7  8  1  0
  8  9  2  0
  9 10  1  0
 10 11  1  0
 11 16  1  0
 11 12  1  0
 12 13  1  0
 13 14  1  0
 14 15  1  0
 15 16  1  0
 16 17  2  0
 12 18  1  0
 18 19  2  0
 18 20  1  0
 20 28  2  0
 20 21  1  0
 21 22  2  0
 22 23  1  0
 23 27  1  0
 23 24  2  0
 24 25  1  0
 25 26  2  0
 26 27  1  0
 27 28  1  0
M  END
>  <SMILES>  (59) 
O=C1NCCN(C(=O)c2ccc3nccn3c2)C1c1ccccc1C(F)(F)F

>  <CollectionName>  (59) 
emolecules

>  <LOG PLASMA PROTEIN BINDING (RAT) (% unbound)>  (59) 
1.80152718852

>  <Internal ID>  (59) 
Mol59

>  <Source>  (59) 
Biogen

$$$$
189741166
     RDKit          2D

 26 29  0  0  0  0  0  0  0  0999 V2000
    0.0007   -0.0031    0.0000 C   0  0  0  0  0  0  0  0  0  0  0  0
    0.7173   -0.4160    0.0000 C   0  0  0  0  0  0  0  0  0  0  0  0
    0.7180   -1.2430    0.0000 C   0  0  0  0  0  0  0  0  0  0  0  0
    1.4346   -1.6559    0.0000 C   0  0  0  0  0  0  0  0  0  0  0  0
    1.4353   -2.4829    0.0000 F   0  0  0  0  0  0  0  0  0  0  0  0
    2.1504   -1.2417    0.0000 C   0  0  0  0  0  0  0  0  0  0  0  0
    2.1497   -0.4147    0.0000 C   0  0  0  0  0  0  0  0  0  0  0  0
    1.4331   -0.0019    0.0000 C   0  0  0  0  0  0  0  0  0  0  0  0
    1.4324    0.8251    0.0000 C   0  0  0  0  0  0  0  0  0  0  0  0
    2.1482    1.2393    0.0000 N   0  0  0  0  0  0  0  0  0  0  0  0
    2.1475    2.0663    0.0000 C   0  0  0  0  0  0  0  0  0  0  0  0
    1.4310    2.4791    0.0000 C   0  0  0  0  0  0  0  0  0  0  0  0
    0.7151    2.0650    0.0000 N   0  0  0  0  0  0  0  0  0  0  0  0
    0.7158    1.2380    0.0000 C   0  0  0  0  0  0  0  0  0  0  0  0
    0.0000    0.8239    0.0000 O   0  0  0  0  0  0  0  0  0  0  0  0
    2.8648    0.8264    0.0000 C   0  0  0  0  0  0  0  0  0  0  0  0
    2.8655   -0.0006    0.0000 O   0  0  0  0  0  0  0  0  0  0  0  0
    3.5807    1.2405    0.0000 C   0  0  0  0  0  0  0  0  0  0  0  0
    3.5807    2.0687    0.0000 C   0  0  0  0  0  0  0  0  0  0  0  0
    4.2965    2.4829    0.0000 C   0  0  0  0  0  0  0  0  0  0  0  0
    5.0123    2.0687    0.0000 C   0  0  0  0  0  0  0  0  0  0  0  0
    5.7992    2.3231    0.0000 N   0  0  0  0  0  0  0  0  0  0  0  0
    6.2902    1.6546    0.0000 C   0  0  0  0  0  0  0  0  0  0  0  0
    5.7992    0.9861    0.0000 C   0  0  0  0  0  0  0  0  0  0  0  0
    5.0123    1.2405    0.0000 N   0  0  0  0  0  0  0  0  0  0  0  0
    4.2965    0.8264    0.0000 C   0  0  0  0  0  0  0  0  0  0  0  0
  1  2  1  0
  2  8  2  0
  2  3  1  0
  3  4  2  0
  4  5  1  0
  4  6  1  0
  6  7  2  0
  7  8  1  0
  8  9  1  0
  9 14  1  0
  9 10  1  0
 10 11  1  0
 11 12  1  0
 12 13  1  0
 13 14  1  0
 14 15  2  0
 10 16  1  0
 16 17  2  0
 16 18  1  0
 18 26  2  0
 18 19  1  0
 19 20  2  0
 20 21  1  0
 21 25  1  0
 21 22  2  0
 22 23  1  0
 23 24  2  0
 24 25  1  0
 25 26  1  0
M  END
>  <SMILES>  (60) 
Cc1cc(F)ccc1C1C(=O)NCCN1C(=O)c1ccc2nccn2c1

>  <CollectionName>  (60) 
emolecules

>  <LOG PLASMA PROTEIN BINDING (RAT) (% unbound)>  (60) 
1.95072499416

>  <Internal ID>  (60) 
Mol60

>  <Source>  (60) 
Biogen

$$$$
49311027
     RDKit          2D

 22 24  0  0  0  0  0  0  0  0999 V2000
    2.4847    2.5065    0.0000 Cl  0  0  0  0  0  0  0  0  0  0  0  0
    2.8989    1.7907    0.0000 C   0  0  0  0  0  0  0  0  0  0  0  0
    3.7271    1.7907    0.0000 C   0  0  0  0  0  0  0  0  0  0  0  0
    4.1412    1.0748    0.0000 C   0  0  0  0  0  0  0  0  0  0  0  0
    3.7271    0.3590    0.0000 C   0  0  0  0  0  0  0  0  0  0  0  0
    2.8989    0.3590    0.0000 C   0  0  0  0  0  0  0  0  0  0  0  0
    2.4847    1.0748    0.0000 C   0  0  0  0  0  0  0  0  0  0  0  0
    1.6565    1.0748    0.0000 C   0  0  0  0  0  0  0  0  0  0  0  0
    1.2424    0.3590    0.0000 N   0  0  0  0  0  0  0  0  0  0  0  0
    0.4141    0.3590    0.0000 C   0  0  0  0  0  0  0  0  0  0  0  0
    0.0000    1.0748    0.0000 C   0  0  0  0  0  0  0  0  0  0  0  0
    0.4141    1.7907    0.0000 N   0  0  0  0  0  0  0  0  0  0  0  0
    1.2424    1.7907    0.0000 C   0  0  0  0  0  0  0  0  0  0  0  0
    1.6565    2.5065    0.0000 O   0  0  0  0  0  0  0  0  0  0  0  0
    1.6565   -0.3568    0.0000 C   0  0  0  0  0  0  0  0  0  0  0  0
    2.4835   -0.3561    0.0000 O   0  0  0  0  0  0  0  0  0  0  0  0
    1.2436   -1.0734    0.0000 C   0  0  0  0  0  0  0  0  0  0  0  0
    1.6577   -1.7892    0.0000 C   0  0  0  0  0  0  0  0  0  0  0  0
    1.2449   -2.5058    0.0000 C   0  0  0  0  0  0  0  0  0  0  0  0
    0.4179   -2.5065    0.0000 N   0  0  0  0  0  0  0  0  0  0  0  0
    0.0037   -1.7907    0.0000 C   0  0  0  0  0  0  0  0  0  0  0  0
    0.4166   -1.0741    0.0000 C   0  0  0  0  0  0  0  0  0  0  0  0
  1  2  1  0
  2  7  2  0
  2  3  1  0
  3  4  2  0
  4  5  1  0
  5  6  2  0
  6  7  1  0
  7  8  1  0
  8 13  1  0
  8  9  1  0
  9 10  1  0
 10 11  1  0
 11 12  1  0
 12 13  1  0
 13 14  2  0
  9 15  1  0
 15 16  2  0
 15 17  1  0
 17 22  1  0
 17 18  2  0
 18 19  1  0
 19 20  2  0
 20 21  1  0
 21 22  2  0
M  END
>  <SMILES>  (61) 
O=C1NCCN(C(=O)c2ccncc2)C1c1ccccc1Cl

>  <CollectionName>  (61) 
emolecules

>  <LOG PLASMA PROTEIN BINDING (RAT) (% unbound)>  (61) 
1.86816815767

>  <Internal ID>  (61) 
Mol61

>  <Source>  (61) 
Biogen

$$$$
1284751
     RDKit          2D

 24 26  0  0  0  0  0  0  0  0999 V2000
   -3.1012    1.4324    0.0000 C   0  0  0  0  0  0  0  0  0  0  0  0
   -2.2743    1.4324    0.0000 C   0  0  0  0  0  0  0  0  0  0  0  0
   -1.8607    2.1486    0.0000 C   0  0  0  0  0  0  0  0  0  0  0  0
   -1.0338    2.1486    0.0000 N   0  0  0  0  0  0  0  0  0  0  0  0
   -0.6202    1.4324    0.0000 C   0  0  0  0  0  0  0  0  0  0  0  0
   -1.0338    0.7162    0.0000 C   0  0  0  0  0  0  0  0  0  0  0  0
   -0.6202    0.0000    0.0000 C   0  0  0  0  0  0  0  0  0  0  0  0
   -1.8607    0.7162    0.0000 O   0  0  0  0  0  0  0  0  0  0  0  0
   -0.6202    2.8648    0.0000 C   0  0  0  0  0  0  0  0  0  0  0  0
   -1.0338    3.5810    0.0000 O   0  0  0  0  0  0  0  0  0  0  0  0
    0.2067    2.8648    0.0000 C   0  0  0  0  0  0  0  0  0  0  0  0
    0.6202    3.5810    0.0000 C   0  0  0  0  0  0  0  0  0  0  0  0
    0.2068    4.2972    0.0000 C   0  0  0  0  0  0  0  0  0  0  0  0
    0.6203    5.0134    0.0000 C   0  0  0  0  0  0  0  0  0  0  0  0
    0.2068    5.7296    0.0000 C   0  0  0  0  0  0  0  0  0  0  0  0
   -0.6202    5.7296    0.0000 C   0  0  0  0  0  0  0  0  0  0  0  0
   -1.0337    5.0134    0.0000 C   0  0  0  0  0  0  0  0  0  0  0  0
   -0.6202    4.2972    0.0000 C   0  0  0  0  0  0  0  0  0  0  0  0
    1.4473    3.5810    0.0000 C   0  0  0  0  0  0  0  0  0  0  0  0
    1.8607    2.8648    0.0000 C   0  0  0  0  0  0  0  0  0  0  0  0
    2.6877    2.8648    0.0000 C   0  0  0  0  0  0  0  0  0  0  0  0
    3.1012    3.5810    0.0000 C   0  0  0  0  0  0  0  0  0  0  0  0
    2.6877    4.2972    0.0000 C   0  0  0  0  0  0  0  0  0  0  0  0
    1.8607    4.2972    0.0000 C   0  0  0  0  0  0  0  0  0  0  0  0
  1  2  1  0
  2  8  1  0
  2  3  1  0
  3  4  1  0
  4  5  1  0
  5  6  1  0
  6  7  1  0
  6  8  1  0
  4  9  1  0
  9 10  2  0
  9 11  1  0
 11 12  1  0
 12 13  1  0
 13 18  1  0
 13 14  2  0
 14 15  1  0
 15 16  2  0
 16 17  1  0
 17 18  2  0
 12 19  1  0
 19 24  1  0
 19 20  2  0
 20 21  1  0
 21 22  2  0
 22 23  1  0
 23 24  2  0
M  END
>  <SMILES>  (62) 
CC1CN(C(=O)CC(c2ccccc2)c2ccccc2)CC(C)O1

>  <CollectionName>  (62) 
emolecules

>  <LOG PLASMA PROTEIN BINDING (RAT) (% unbound)>  (62) 
0.718335578909

>  <Internal ID>  (62) 
Mol62

>  <Source>  (62) 
Biogen

$$$$
299989682
     RDKit          2D

 23 26  0  0  0  0  0  0  0  0999 V2000
    3.3630    2.4130    0.0000 C   0  0  0  0  0  0  0  0  0  0  0  0
    3.6804    1.6493    0.0000 N   0  0  0  0  0  0  0  0  0  0  0  0
    3.8804    0.8375    0.0000 C   0  0  0  0  0  0  0  0  0  0  0  0
    4.6444    0.5211    0.0000 C   0  0  0  0  0  0  0  0  0  0  0  0
    4.7519    0.9240    0.0000 C   0  0  0  0  0  0  0  0  0  0  0  0
    3.9878    1.2404    0.0000 C   0  0  0  0  0  0  0  0  0  0  0  0
    2.9014    0.9031    0.0000 C   0  0  0  0  0  0  0  0  0  0  0  0
    2.8596    0.4883    0.0000 C   0  0  0  0  0  0  0  0  0  0  0  0
    3.2386    0.3181    0.0000 C   0  0  0  0  0  0  0  0  0  0  0  0
    2.1447    0.0725    0.0000 O   0  0  0  0  0  0  0  0  0  0  0  0
    2.1473   -0.7545    0.0000 C   0  0  0  0  0  0  0  0  0  0  0  0
    2.8648   -1.1657    0.0000 C   0  0  0  0  0  0  0  0  0  0  0  0
    3.5797   -0.7500    0.0000 C   0  0  0  0  0  0  0  0  0  0  0  0
    4.2972   -1.1612    0.0000 C   0  0  0  0  0  0  0  0  0  0  0  0
    4.2998   -1.9882    0.0000 C   0  0  0  0  0  0  0  0  0  0  0  0
    3.5849   -2.4040    0.0000 C   0  0  0  0  0  0  0  0  0  0  0  0
    2.8674   -1.9927    0.0000 C   0  0  0  0  0  0  0  0  0  0  0  0
    1.4324   -1.1702    0.0000 C   0  0  0  0  0  0  0  0  0  0  0  0
    1.4350   -1.9972    0.0000 C   0  0  0  0  0  0  0  0  0  0  0  0
    0.7201   -2.4130    0.0000 C   0  0  0  0  0  0  0  0  0  0  0  0
    0.0026   -2.0017    0.0000 C   0  0  0  0  0  0  0  0  0  0  0  0
    0.0000   -1.1748    0.0000 C   0  0  0  0  0  0  0  0  0  0  0  0
    0.7149   -0.7590    0.0000 C   0  0  0  0  0  0  0  0  0  0  0  0
  1  2  1  0
  2  6  1  0
  2  3  1  0
  3  9  1  0
  3  4  1  0
  4  5  1  0
  5  6  1  0
  6  7  1  0
  7  8  1  0
  8  9  1  0
  8 10  1  0
 10 11  1  0
 11 12  1  0
 12 17  1  0
 12 13  2  0
 13 14  1  0
 14 15  2  0
 15 16  1  0
 16 17  2  0
 11 18  1  0
 18 23  1  0
 18 19  2  0
 19 20  1  0
 20 21  2  0
 21 22  1  0
 22 23  2  0
M  END
>  <SMILES>  (63) 
CN1C2CCC1CC(OC(c1ccccc1)c1ccccc1)C2

>  <CollectionName>  (63) 
emolecules

>  <LOG PLASMA PROTEIN BINDING (RAT) (% unbound)>  (63) 
1.18084241465

>  <Internal ID>  (63) 
Mol63

>  <Source>  (63) 
Biogen

$$$$
140075
     RDKit          2D

 31 34  0  0  0  0  0  0  0  0999 V2000
    5.2968    2.5216    0.0000 C   0  0  0  0  0  0  0  0  0  0  0  0
    5.7103    1.8054    0.0000 C   0  0  0  0  0  0  0  0  0  0  0  0
    6.4265    2.2189    0.0000 C   0  0  0  0  0  0  0  0  0  0  0  0
    6.1238    1.0891    0.0000 C   0  0  0  0  0  0  0  0  0  0  0  0
    4.9941    1.3919    0.0000 C   0  0  0  0  0  0  0  0  0  0  0  0
    4.2779    1.8054    0.0000 O   0  0  0  0  0  0  0  0  0  0  0  0
    4.9941    0.5649    0.0000 N   0  0  0  0  0  0  0  0  0  0  0  0
    4.2779    0.1514    0.0000 C   0  0  0  0  0  0  0  0  0  0  0  0
    4.2779   -0.6756    0.0000 C   0  0  0  0  0  0  0  0  0  0  0  0
    4.9941   -1.0891    0.0000 C   0  0  0  0  0  0  0  0  0  0  0  0
    4.5806   -1.8054    0.0000 C   0  0  0  0  0  0  0  0  0  0  0  0
    3.7536   -1.8054    0.0000 C   0  0  0  0  0  0  0  0  0  0  0  0
    3.3401   -2.5216    0.0000 C   0  0  0  0  0  0  0  0  0  0  0  0
    2.5131   -2.5216    0.0000 C   0  0  0  0  0  0  0  0  0  0  0  0
    2.0996   -1.8054    0.0000 C   0  0  0  0  0  0  0  0  0  0  0  0
    2.5131   -1.0891    0.0000 C   0  0  0  0  0  0  0  0  0  0  0  0
    3.3401   -1.0891    0.0000 C   0  0  0  0  0  0  0  0  0  0  0  0
    1.2726   -1.8054    0.0000 C   0  0  0  0  0  0  0  0  0  0  0  0
    0.7865   -2.4744    0.0000 C   0  0  0  0  0  0  0  0  0  0  0  0
    0.0000   -2.2189    0.0000 C   0  0  0  0  0  0  0  0  0  0  0  0
    0.0000   -1.3919    0.0000 C   0  0  0  0  0  0  0  0  0  0  0  0
    0.7865   -1.1363    0.0000 S   0  0  0  0  0  0  0  0  0  0  0  0
    5.7103   -0.6756    0.0000 C   0  0  0  0  0  0  0  0  0  0  0  0
    5.7103    0.1514    0.0000 C   0  0  0  0  0  0  0  0  0  0  0  0
    5.4076   -1.8054    0.0000 C   0  0  0  0  0  0  0  0  0  0  0  0
    4.9941   -2.5216    0.0000 O   0  0  0  0  0  0  0  0  0  0  0  0
    6.2346   -1.8054    0.0000 N   0  0  0  0  0  0  0  0  0  0  0  0
    6.7207   -2.4744    0.0000 C   0  0  0  0  0  0  0  0  0  0  0  0
    7.5072   -2.2189    0.0000 C   0  0  0  0  0  0  0  0  0  0  0  0
    7.5072   -1.3919    0.0000 C   0  0  0  0  0  0  0  0  0  0  0  0
    6.7207   -1.1363    0.0000 C   0  0  0  0  0  0  0  0  0  0  0  0
  1  2  1  0
  2  3  1  0
  2  4  1  0
  2  5  1  0
  5  6  2  0
  5  7  1  0
  7 24  1  0
  7  8  1  0
  8  9  1  0
  9 10  1  0
 10 11  1  0
 11 12  1  0
 12 17  1  0
 12 13  2  0
 13 14  1  0
 14 15  2  0
 15 16  1  0
 16 17  2  0
 15 18  1  0
 18 22  1  0
 18 19  2  0
 19 20  1  0
 20 21  2  0
 21 22  1  0
 10 23  1  0
 23 24  1  0
 10 25  1  0
 25 26  2  0
 25 27  1  0
 27 31  1  0
 27 28  1  0
 28 29  1  0
 29 30  1  0
 30 31  1  0
M  END
>  <SMILES>  (64) 
CC(C)(C)C(=O)N1CCC(Cc2ccc(-c3cccs3)cc2)(C(=O)N2CCCC2)CC1

>  <CollectionName>  (64) 
emolecules

>  <LOG PLASMA PROTEIN BINDING (RAT) (% unbound)>  (64) 
0.00817418400643

>  <Internal ID>  (64) 
Mol64

>  <Source>  (64) 
Biogen

$$$$
49901113
     RDKit          2D

 25 28  0  0  1  0  0  0  0  0999 V2000
    0.9071    0.7133    0.0000 O   0  0  0  0  0  0  0  0  0  0  0  0
    1.7341    0.7140    0.0000 C   0  0  0  0  0  0  0  0  0  0  0  0
    2.1482   -0.0019    0.0000 C   0  0  0  0  0  0  0  0  0  0  0  0
    2.8641    0.4123    0.0000 N   0  0  0  0  0  0  0  0  0  0  0  0
    3.5807   -0.0006    0.0000 C   0  0  0  0  0  0  0  0  0  0  0  0
    3.5814   -0.8276    0.0000 C   0  0  0  0  0  0  0  0  0  0  0  0
    4.2979   -1.2405    0.0000 N   0  0  0  0  0  0  0  0  0  0  0  0
    5.0138   -0.8264    0.0000 C   0  0  0  0  0  0  0  0  0  0  0  0
    5.0131    0.0006    0.0000 C   0  0  0  0  0  0  0  0  0  0  0  0
    4.2965    0.4135    0.0000 C   0  0  0  0  0  0  0  0  0  0  0  0
    5.7289    0.4147    0.0000 C   0  0  0  0  0  0  0  0  0  0  0  0
    5.7289    1.2430    0.0000 C   0  0  0  0  0  0  0  0  0  0  0  0
    6.4447    1.6571    0.0000 C   0  0  0  0  0  0  0  0  0  0  0  0
    7.1606    1.2430    0.0000 C   0  0  0  0  0  0  0  0  0  0  0  0
    7.9474    1.4974    0.0000 N   0  0  0  0  0  0  0  0  0  0  0  0
    8.4385    0.8289    0.0000 N   0  0  0  0  0  0  0  0  0  0  0  0
    7.9474    0.1604    0.0000 C   0  0  0  0  0  0  0  0  0  0  0  0
    7.1606    0.4147    0.0000 C   0  0  0  0  0  0  0  0  0  0  0  0
    6.4447    0.0006    0.0000 N   0  0  0  0  0  0  0  0  0  0  0  0
    1.4324   -0.4160    0.0000 C   0  0  0  0  0  0  0  0  0  0  0  0
    0.7158   -0.0031    0.0000 C   0  0  0  0  0  0  0  0  0  0  0  0
    0.0000   -0.4172    0.0000 C   0  0  0  0  0  0  0  0  0  0  0  0
    0.0007   -1.2442    0.0000 C   0  0  0  0  0  0  0  0  0  0  0  0
    0.7173   -1.6571    0.0000 C   0  0  0  0  0  0  0  0  0  0  0  0
    1.4331   -1.2430    0.0000 C   0  0  0  0  0  0  0  0  0  0  0  0
  1  2  1  0
  3  2  1  1
  3  4  1  0
  4  5  1  0
  5 10  1  0
  5  6  2  0
  6  7  1  0
  7  8  2  0
  8  9  1  0
  9 10  2  0
  9 11  1  0
 11 19  1  0
 11 12  2  0
 12 13  1  0
 13 14  2  0
 14 18  1  0
 14 15  1  0
 15 16  1  0
 16 17  2  0
 17 18  1  0
 18 19  2  0
  3 20  1  0
 20 25  1  0
 20 21  2  0
 21 22  1  0
 22 23  2  0
 23 24  1  0
 24 25  2  0
M  END
>  <SMILES>  (65) 
OC[C@H](Nc1cncc(-c2ccc3[nH]ncc3n2)c1)c1ccccc1

>  <CollectionName>  (65) 
emolecules

>  <LOG PLASMA PROTEIN BINDING (RAT) (% unbound)>  (65) 
1.02469086236

>  <Internal ID>  (65) 
Mol65

>  <Source>  (65) 
Biogen

$$$$
200967
     RDKit          2D

 30 33  0  0  0  0  0  0  0  0999 V2000
    5.3817    2.0877    0.0000 C   0  0  0  0  0  0  0  0  0  0  0  0
    4.9682    1.3715    0.0000 N   0  0  0  0  0  0  0  0  0  0  0  0
    5.3817    0.6553    0.0000 C   0  0  0  0  0  0  0  0  0  0  0  0
    4.1412    1.3715    0.0000 C   0  0  0  0  0  0  0  0  0  0  0  0
    3.7271    2.0873    0.0000 N   0  0  0  0  0  0  0  0  0  0  0  0
    2.8989    2.0873    0.0000 C   0  0  0  0  0  0  0  0  0  0  0  0
    2.4847    1.3715    0.0000 C   0  0  0  0  0  0  0  0  0  0  0  0
    1.6565    1.3715    0.0000 C   0  0  0  0  0  0  0  0  0  0  0  0
    1.2424    0.6556    0.0000 C   0  0  0  0  0  0  0  0  0  0  0  0
    0.4141    0.6556    0.0000 C   0  0  0  0  0  0  0  0  0  0  0  0
    0.0000    1.3715    0.0000 C   0  0  0  0  0  0  0  0  0  0  0  0
    0.4141    2.0873    0.0000 C   0  0  0  0  0  0  0  0  0  0  0  0
    0.0000    2.8032    0.0000 Cl  0  0  0  0  0  0  0  0  0  0  0  0
    1.2424    2.0873    0.0000 C   0  0  0  0  0  0  0  0  0  0  0  0
    2.8989    0.6556    0.0000 C   0  0  0  0  0  0  0  0  0  0  0  0
    3.7271    0.6556    0.0000 N   0  0  0  0  0  0  0  0  0  0  0  0
    2.4847   -0.0602    0.0000 C   0  0  0  0  0  0  0  0  0  0  0  0
    1.6577   -0.0595    0.0000 C   0  0  0  0  0  0  0  0  0  0  0  0
    1.2436   -0.7753    0.0000 C   0  0  0  0  0  0  0  0  0  0  0  0
    1.6565   -1.4919    0.0000 C   0  0  0  0  0  0  0  0  0  0  0  0
    2.4835   -1.4926    0.0000 C   0  0  0  0  0  0  0  0  0  0  0  0
    2.8976   -0.7768    0.0000 N   0  0  0  0  0  0  0  0  0  0  0  0
    3.7246   -0.7775    0.0000 C   0  0  0  0  0  0  0  0  0  0  0  0
    4.1387   -0.0616    0.0000 O   0  0  0  0  0  0  0  0  0  0  0  0
    4.1375   -1.4941    0.0000 C   0  0  0  0  0  0  0  0  0  0  0  0
    3.8005   -2.2493    0.0000 S   0  0  0  0  0  0  0  0  0  0  0  0
    4.4146   -2.8032    0.0000 C   0  0  0  0  0  0  0  0  0  0  0  0
    5.1311   -2.3903    0.0000 N   0  0  0  0  0  0  0  0  0  0  0  0
    4.9599   -1.5812    0.0000 C   0  0  0  0  0  0  0  0  0  0  0  0
    5.5138   -0.9671    0.0000 C   0  0  0  0  0  0  0  0  0  0  0  0
  1  2  1  0
  2  3  1  0
  2  4  1  0
  4 16  2  0
  4  5  1  0
  5  6  2  0
  6  7  1  0
  7  8  1  0
  8 14  1  0
  8  9  2  0
  9 10  1  0
 10 11  2  0
 11 12  1  0
 12 13  1  0
 12 14  2  0
  7 15  2  0
 15 16  1  0
 15 17  1  0
 17 22  1  0
 17 18  1  0
 18 19  1  0
 19 20  1  0
 20 21  1  0
 21 22  1  0
 22 23  1  0
 23 24  2  0
 23 25  1  0
 25 29  2  0
 25 26  1  0
 26 27  1  0
 27 28  2  0
 28 29  1  0
 29 30  1  0
M  END
>  <SMILES>  (66) 
Cc1ncsc1C(=O)N1CCCCC1c1nc(N(C)C)ncc1-c1cccc(Cl)c1

>  <CollectionName>  (66) 
emolecules

>  <LOG PLASMA PROTEIN BINDING (RAT) (% unbound)>  (66) 
0.0216027160282

>  <Internal ID>  (66) 
Mol66

>  <Source>  (66) 
Biogen

$$$$
32236728
     RDKit          2D

 17 18  0  0  0  0  0  0  0  0999 V2000
    5.0134    1.4473    0.0000 O   0  0  0  0  0  0  0  0  0  0  0  0
    4.2972    1.0338    0.0000 C   0  0  0  0  0  0  0  0  0  0  0  0
    4.2972    0.2068    0.0000 C   0  0  0  0  0  0  0  0  0  0  0  0
    5.0134   -0.2067    0.0000 C   0  0  0  0  0  0  0  0  0  0  0  0
    5.0134   -1.0337    0.0000 C   0  0  0  0  0  0  0  0  0  0  0  0
    4.2972   -1.4472    0.0000 C   0  0  0  0  0  0  0  0  0  0  0  0
    3.5810   -1.0337    0.0000 C   0  0  0  0  0  0  0  0  0  0  0  0
    3.5810   -0.2067    0.0000 N   0  0  0  0  0  0  0  0  0  0  0  0
    2.8648    0.2068    0.0000 C   0  0  0  0  0  0  0  0  0  0  0  0
    2.1486   -0.2067    0.0000 C   0  0  0  0  0  0  0  0  0  0  0  0
    2.1486   -1.0337    0.0000 C   0  0  0  0  0  0  0  0  0  0  0  0
    1.4324   -1.4472    0.0000 C   0  0  0  0  0  0  0  0  0  0  0  0
    0.7162   -1.0338    0.0000 C   0  0  0  0  0  0  0  0  0  0  0  0
    0.0000   -1.4473    0.0000 Cl  0  0  0  0  0  0  0  0  0  0  0  0
    0.7162   -0.2067    0.0000 C   0  0  0  0  0  0  0  0  0  0  0  0
    0.0000    0.2068    0.0000 Cl  0  0  0  0  0  0  0  0  0  0  0  0
    1.4324    0.2068    0.0000 C   0  0  0  0  0  0  0  0  0  0  0  0
  1  2  1  0
  2  3  1  0
  3  8  1  0
  3  4  1  0
  4  5  1  0
  5  6  1  0
  6  7  1  0
  7  8  1  0
  8  9  1  0
  9 10  1  0
 10 17  1  0
 10 11  2  0
 11 12  1  0
 12 13  2  0
 13 14  1  0
 13 15  1  0
 15 16  1  0
 15 17  2  0
M  END
>  <SMILES>  (67) 
OCC1CCCCN1Cc1ccc(Cl)c(Cl)c1

>  <CollectionName>  (67) 
emolecules

>  <LOG PLASMA PROTEIN BINDING (RAT) (% unbound)>  (67) 
1.48498278193

>  <Internal ID>  (67) 
Mol67

>  <Source>  (67) 
Biogen

$$$$
48337674
     RDKit          2D

 24 26  0  0  0  0  0  0  0  0999 V2000
    1.4313   -3.0469    0.0000 C   0  0  0  0  0  0  0  0  0  0  0  0
    2.1475   -2.6334    0.0000 C   0  0  0  0  0  0  0  0  0  0  0  0
    2.8637   -3.0469    0.0000 O   0  0  0  0  0  0  0  0  0  0  0  0
    2.1475   -1.8064    0.0000 N   0  0  0  0  0  0  0  0  0  0  0  0
    1.4313   -1.3929    0.0000 C   0  0  0  0  0  0  0  0  0  0  0  0
    1.4313   -0.5659    0.0000 C   0  0  0  0  0  0  0  0  0  0  0  0
    2.1475   -0.1524    0.0000 N   0  0  0  0  0  0  0  0  0  0  0  0
    2.8637   -0.5659    0.0000 C   0  0  0  0  0  0  0  0  0  0  0  0
    2.8637   -1.3929    0.0000 C   0  0  0  0  0  0  0  0  0  0  0  0
    2.1475    0.6746    0.0000 C   0  0  0  0  0  0  0  0  0  0  0  0
    1.4317    1.0887    0.0000 N   0  0  0  0  0  0  0  0  0  0  0  0
    1.4317    1.9170    0.0000 C   0  0  0  0  0  0  0  0  0  0  0  0
    2.1475    2.3311    0.0000 N   0  0  0  0  0  0  0  0  0  0  0  0
    2.8634    1.9170    0.0000 C   0  0  0  0  0  0  0  0  0  0  0  0
    3.6502    2.1713    0.0000 S   0  0  0  0  0  0  0  0  0  0  0  0
    4.1412    1.5028    0.0000 C   0  0  0  0  0  0  0  0  0  0  0  0
    4.9682    1.5028    0.0000 C   0  0  0  0  0  0  0  0  0  0  0  0
    3.6502    0.8343    0.0000 C   0  0  0  0  0  0  0  0  0  0  0  0
    3.9026    0.0468    0.0000 C   0  0  0  0  0  0  0  0  0  0  0  0
    2.8634    1.0887    0.0000 C   0  0  0  0  0  0  0  0  0  0  0  0
    0.7158    2.3311    0.0000 C   0  0  0  0  0  0  0  0  0  0  0  0
    1.1300    3.0469    0.0000 F   0  0  0  0  0  0  0  0  0  0  0  0
    0.0000    2.7452    0.0000 F   0  0  0  0  0  0  0  0  0  0  0  0
    0.3017    1.6152    0.0000 F   0  0  0  0  0  0  0  0  0  0  0  0
  1  2  1  0
  2  3  2  0
  2  4  1  0
  4  9  1  0
  4  5  1  0
  5  6  1  0
  6  7  1  0
  7  8  1  0
  8  9  1  0
  7 10  1  0
 10 20  1  0
 10 11  2  0
 11 12  1  0
 12 13  2  0
 13 14  1  0
 14 20  2  0
 14 15  1  0
 15 16  1  0
 16 17  1  0
 16 18  2  0
 18 19  1  0
 18 20  1  0
 12 21  1  0
 21 22  1  0
 21 23  1  0
 21 24  1  0
M  END
>  <SMILES>  (68) 
CC(=O)N1CCN(c2nc(C(F)(F)F)nc3sc(C)c(C)c23)CC1

>  <CollectionName>  (68) 
emolecules

>  <LOG PLASMA PROTEIN BINDING (RAT) (% unbound)>  (68) 
0.624282095836

>  <Internal ID>  (68) 
Mol68

>  <Source>  (68) 
Biogen

$$$$
180601629
     RDKit          2D

 20 22  0  0  0  0  0  0  0  0999 V2000
    0.0000   -0.8245    0.0000 C   0  0  0  0  0  0  0  0  0  0  0  0
    0.7166   -0.4116    0.0000 O   0  0  0  0  0  0  0  0  0  0  0  0
    0.7173    0.4154    0.0000 C   0  0  0  0  0  0  0  0  0  0  0  0
    0.0014    0.8295    0.0000 C   0  0  0  0  0  0  0  0  0  0  0  0
    0.0022    1.6565    0.0000 C   0  0  0  0  0  0  0  0  0  0  0  0
    0.7187    2.0694    0.0000 C   0  0  0  0  0  0  0  0  0  0  0  0
    1.4346    1.6552    0.0000 C   0  0  0  0  0  0  0  0  0  0  0  0
    1.4338    0.8282    0.0000 C   0  0  0  0  0  0  0  0  0  0  0  0
    2.1497    0.4141    0.0000 C   0  0  0  0  0  0  0  0  0  0  0  0
    2.8663    0.8270    0.0000 O   0  0  0  0  0  0  0  0  0  0  0  0
    2.1490   -0.4129    0.0000 N   0  0  0  0  0  0  0  0  0  0  0  0
    2.8648   -0.8270    0.0000 C   0  0  0  0  0  0  0  0  0  0  0  0
    2.8648   -1.6552    0.0000 C   0  0  0  0  0  0  0  0  0  0  0  0
    3.5807   -2.0694    0.0000 C   0  0  0  0  0  0  0  0  0  0  0  0
    4.2965   -1.6552    0.0000 C   0  0  0  0  0  0  0  0  0  0  0  0
    5.0833   -1.9096    0.0000 C   0  0  0  0  0  0  0  0  0  0  0  0
    5.5744   -1.2411    0.0000 C   0  0  0  0  0  0  0  0  0  0  0  0
    5.0833   -0.5726    0.0000 N   0  0  0  0  0  0  0  0  0  0  0  0
    4.2965   -0.8270    0.0000 C   0  0  0  0  0  0  0  0  0  0  0  0
    3.5807   -0.4129    0.0000 C   0  0  0  0  0  0  0  0  0  0  0  0
  1  2  1  0
  2  3  1  0
  3  8  2  0
  3  4  1  0
  4  5  2  0
  5  6  1  0
  6  7  2  0
  7  8  1  0
  8  9  1  0
  9 10  2  0
  9 11  1  0
 11 12  1  0
 12 20  1  0
 12 13  2  0
 13 14  1  0
 14 15  2  0
 15 19  1  0
 15 16  1  0
 16 17  2  0
 17 18  1  0
 18 19  1  0
 19 20  2  0
M  END
>  <SMILES>  (69) 
COc1ccccc1C(=O)Nc1ccc2cc[nH]c2c1

>  <CollectionName>  (69) 
emolecules

>  <LOG PLASMA PROTEIN BINDING (RAT) (% unbound)>  (69) 
0.571825249041

>  <Internal ID>  (69) 
Mol69

>  <Source>  (69) 
Biogen

$$$$
17268136
     RDKit          2D

 30 33  0  0  0  0  0  0  0  0999 V2000
    1.6540    2.8648    0.0000 C   0  0  0  0  0  0  0  0  0  0  0  0
    2.0675    2.1486    0.0000 C   0  0  0  0  0  0  0  0  0  0  0  0
    2.8945    2.1486    0.0000 N   0  0  0  0  0  0  0  0  0  0  0  0
    3.3080    1.4324    0.0000 C   0  0  0  0  0  0  0  0  0  0  0  0
    4.1350    1.4324    0.0000 C   0  0  0  0  0  0  0  0  0  0  0  0
    4.5485    2.1486    0.0000 O   0  0  0  0  0  0  0  0  0  0  0  0
    4.1350    2.8648    0.0000 C   0  0  0  0  0  0  0  0  0  0  0  0
    3.3080    2.8648    0.0000 C   0  0  0  0  0  0  0  0  0  0  0  0
    0.8270    2.8648    0.0000 N   0  0  0  0  0  0  0  0  0  0  0  0
    0.4135    3.5810    0.0000 C   0  0  0  0  0  0  0  0  0  0  0  0
    0.8270    4.2972    0.0000 C   0  0  0  0  0  0  0  0  0  0  0  0
    1.6540    4.2972    0.0000 C   0  0  0  0  0  0  0  0  0  0  0  0
    2.0675    5.0134    0.0000 C   0  0  0  0  0  0  0  0  0  0  0  0
    1.6540    5.7296    0.0000 C   0  0  0  0  0  0  0  0  0  0  0  0
    0.8270    5.7296    0.0000 N   0  0  0  0  0  0  0  0  0  0  0  0
    0.4135    5.0134    0.0000 C   0  0  0  0  0  0  0  0  0  0  0  0
    0.4135    2.1486    0.0000 C   0  0  0  0  0  0  0  0  0  0  0  0
   -0.4135    2.1486    0.0000 C   0  0  0  0  0  0  0  0  0  0  0  0
   -0.8270    2.8648    0.0000 C   0  0  0  0  0  0  0  0  0  0  0  0
   -1.6540    2.8648    0.0000 C   0  0  0  0  0  0  0  0  0  0  0  0
   -2.0675    2.1486    0.0000 C   0  0  0  0  0  0  0  0  0  0  0  0
   -1.6540    1.4324    0.0000 C   0  0  0  0  0  0  0  0  0  0  0  0
   -2.0675    0.7162    0.0000 O   0  0  0  0  0  0  0  0  0  0  0  0
   -2.8945    0.7162    0.0000 C   0  0  0  0  0  0  0  0  0  0  0  0
   -3.3080    0.0000    0.0000 C   0  0  0  0  0  0  0  0  0  0  0  0
   -4.1350    0.0000    0.0000 C   0  0  0  0  0  0  0  0  0  0  0  0
   -4.5485    0.7162    0.0000 C   0  0  0  0  0  0  0  0  0  0  0  0
   -4.1350    1.4324    0.0000 C   0  0  0  0  0  0  0  0  0  0  0  0
   -3.3080    1.4324    0.0000 C   0  0  0  0  0  0  0  0  0  0  0  0
   -0.8270    1.4324    0.0000 C   0  0  0  0  0  0  0  0  0  0  0  0
  1  2  1  0
  2  3  1  0
  3  8  1  0
  3  4  1  0
  4  5  1  0
  5  6  1  0
  6  7  1  0
  7  8  1  0
  1  9  1  0
  9 10  1  0
 10 11  1  0
 11 16  1  0
 11 12  2  0
 12 13  1  0
 13 14  2  0
 14 15  1  0
 15 16  2  0
  9 17  1  0
 17 18  1  0
 18 30  1  0
 18 19  2  0
 19 20  1  0
 20 21  2  0
 21 22  1  0
 22 23  1  0
 23 24  1  0
 24 29  1  0
 24 25  2  0
 25 26  1  0
 26 27  2  0
 27 28  1  0
 28 29  2  0
 22 30  2  0
M  END
>  <SMILES>  (70) 
c1ccc(Oc2cccc(CN(CCN3CCOCC3)Cc3cccnc3)c2)cc1

>  <CollectionName>  (70) 
emolecules

>  <LOG PLASMA PROTEIN BINDING (RAT) (% unbound)>  (70) 
0.142389466119

>  <Internal ID>  (70) 
Mol70

>  <Source>  (70) 
Biogen

$$$$
32449297
     RDKit          2D

 28 31  0  0  1  0  0  0  0  0999 V2000
    6.8883   -1.6055    0.0000 C   0  0  0  0  0  0  0  0  0  0  0  0
    6.1008   -1.8579    0.0000 O   0  0  0  0  0  0  0  0  0  0  0  0
    5.4884   -1.3021    0.0000 C   0  0  0  0  0  0  0  0  0  0  0  0
    5.6636   -0.4938    0.0000 C   0  0  0  0  0  0  0  0  0  0  0  0
    5.0512    0.0620    0.0000 C   0  0  0  0  0  0  0  0  0  0  0  0
    4.2637   -0.1904    0.0000 C   0  0  0  0  0  0  0  0  0  0  0  0
    4.0885   -0.9987    0.0000 C   0  0  0  0  0  0  0  0  0  0  0  0
    4.7008   -1.5545    0.0000 C   0  0  0  0  0  0  0  0  0  0  0  0
    3.6513    0.3654    0.0000 C   0  0  0  0  0  0  0  0  0  0  0  0
    4.1423    1.0339    0.0000 C   0  0  0  0  0  0  0  0  0  0  0  0
    3.6513    1.7024    0.0000 N   0  0  0  0  0  0  0  0  0  0  0  0
    2.8645    1.4480    0.0000 C   0  0  0  0  0  0  0  0  0  0  0  0
    2.1486    1.8622    0.0000 C   0  0  0  0  0  0  0  0  0  0  0  0
    1.4328    1.4480    0.0000 C   0  0  0  0  0  0  0  0  0  0  0  0
    1.4328    0.6198    0.0000 C   0  0  0  0  0  0  0  0  0  0  0  0
    2.1486    0.2057    0.0000 N   0  0  0  0  0  0  0  0  0  0  0  0
    2.1486   -0.6213    0.0000 C   0  0  0  0  0  0  0  0  0  0  0  0
    1.4324   -1.0348    0.0000 C   0  0  0  0  0  0  0  0  0  0  0  0
    0.7162   -0.6213    0.0000 C   0  0  0  0  0  0  0  0  0  0  0  0
    0.0000   -1.0348    0.0000 C   0  0  0  0  0  0  0  0  0  0  0  0
    0.0000   -1.8618    0.0000 C   0  0  0  0  0  0  0  0  0  0  0  0
    0.7162   -2.2753    0.0000 C   0  0  0  0  0  0  0  0  0  0  0  0
    0.7162   -3.1023    0.0000 F   0  0  0  0  0  0  0  0  0  0  0  0
    1.4324   -1.8618    0.0000 C   0  0  0  0  0  0  0  0  0  0  0  0
    2.8645    0.6198    0.0000 C   0  0  0  0  0  0  0  0  0  0  0  0
    3.9037    2.4900    0.0000 C   0  0  0  0  0  0  0  0  0  0  0  0
    4.7119    2.6651    0.0000 C   0  0  0  0  0  0  0  0  0  0  0  0
    3.3479    3.1023    0.0000 O   0  0  0  0  0  0  0  0  0  0  0  0
  1  2  1  0
  2  3  1  0
  3  8  2  0
  3  4  1  0
  4  5  2  0
  5  6  1  0
  6  7  2  0
  7  8  1  0
  9  6  1  6
  9 25  1  0
  9 10  1  0
 10 11  1  0
 11 12  1  0
 12 25  1  0
 12 13  1  1
 13 14  1  0
 14 15  1  0
 15 16  1  0
 16 17  1  0
 17 18  1  0
 18 24  1  0
 18 19  2  0
 19 20  1  0
 20 21  2  0
 21 22  1  0
 22 23  1  0
 22 24  2  0
 25 16  1  1
 11 26  1  0
 26 27  1  0
 26 28  2  0
M  END
>  <SMILES>  (71) 
COc1ccc([C@H]2CN(C(C)=O)[C@@H]3CCCN(Cc4cccc(F)c4)[C@H]23)cc1

>  <CollectionName>  (71) 
emolecules

>  <LOG PLASMA PROTEIN BINDING (RAT) (% unbound)>  (71) 
0.59406090127

>  <Internal ID>  (71) 
Mol71

>  <Source>  (71) 
Biogen

$$$$
324071118
     RDKit          2D

 31 33  0  0  0  0  0  0  0  0999 V2000
    3.5810   -2.6890    0.0000 C   0  0  0  0  0  0  0  0  0  0  0  0
    2.8648   -2.2755    0.0000 C   0  0  0  0  0  0  0  0  0  0  0  0
    2.1486   -2.6890    0.0000 C   0  0  0  0  0  0  0  0  0  0  0  0
    2.8648   -1.4485    0.0000 O   0  0  0  0  0  0  0  0  0  0  0  0
    2.1486   -1.0350    0.0000 C   0  0  0  0  0  0  0  0  0  0  0  0
    1.4324   -1.4485    0.0000 C   0  0  0  0  0  0  0  0  0  0  0  0
    0.7162   -1.0350    0.0000 C   0  0  0  0  0  0  0  0  0  0  0  0
    0.0000   -1.4485    0.0000 F   0  0  0  0  0  0  0  0  0  0  0  0
    0.7162   -0.2080    0.0000 C   0  0  0  0  0  0  0  0  0  0  0  0
    1.4324    0.2055    0.0000 C   0  0  0  0  0  0  0  0  0  0  0  0
    2.1486   -0.2080    0.0000 C   0  0  0  0  0  0  0  0  0  0  0  0
    2.8648    0.2055    0.0000 N   0  0  0  0  0  0  0  0  0  0  0  0
    2.8648    1.0325    0.0000 C   0  0  0  0  0  0  0  0  0  0  0  0
    2.1490    1.4466    0.0000 N   0  0  0  0  0  0  0  0  0  0  0  0
    2.1490    2.2749    0.0000 C   0  0  0  0  0  0  0  0  0  0  0  0
    2.8648    2.6890    0.0000 N   0  0  0  0  0  0  0  0  0  0  0  0
    3.5807    2.2749    0.0000 C   0  0  0  0  0  0  0  0  0  0  0  0
    4.3675    2.5293    0.0000 S   0  0  0  0  0  0  0  0  0  0  0  0
    4.8585    1.8608    0.0000 C   0  0  0  0  0  0  0  0  0  0  0  0
    5.6855    1.8608    0.0000 C   0  0  0  0  0  0  0  0  0  0  0  0
    6.0990    2.5770    0.0000 O   0  0  0  0  0  0  0  0  0  0  0  0
    6.0990    1.1445    0.0000 N   0  0  0  0  0  0  0  0  0  0  0  0
    6.9260    1.1445    0.0000 C   0  0  0  0  0  0  0  0  0  0  0  0
    7.3395    0.4283    0.0000 C   0  0  0  0  0  0  0  0  0  0  0  0
    8.1665    0.4283    0.0000 C   0  0  0  0  0  0  0  0  0  0  0  0
    8.5800   -0.2879    0.0000 N   0  0  0  0  0  0  0  0  0  0  0  0
    9.4070   -0.2879    0.0000 C   0  0  0  0  0  0  0  0  0  0  0  0
    8.1665   -1.0041    0.0000 C   0  0  0  0  0  0  0  0  0  0  0  0
    4.3675    1.1922    0.0000 C   0  0  0  0  0  0  0  0  0  0  0  0
    4.6199    0.4047    0.0000 C   0  0  0  0  0  0  0  0  0  0  0  0
    3.5807    1.4466    0.0000 C   0  0  0  0  0  0  0  0  0  0  0  0
  1  2  1  0
  2  3  1  0
  2  4  1  0
  4  5  1  0
  5 11  2  0
  5  6  1  0
  6  7  2  0
  7  8  1  0
  7  9  1  0
  9 10  2  0
 10 11  1  0
 11 12  1  0
 12 13  1  0
 13 31  1  0
 13 14  2  0
 14 15  1  0
 15 16  2  0
 16 17  1  0
 17 31  2  0
 17 18  1  0
 18 19  1  0
 19 20  1  0
 20 21  2  0
 20 22  1  0
 22 23  1  0
 23 24  1  0
 24 25  1  0
 25 26  1  0
 26 27  1  0
 26 28  1  0
 19 29  2  0
 29 30  1  0
 29 31  1  0
M  END
>  <SMILES>  (72) 
Cc1c(C(=O)NCCCN(C)C)sc2ncnc(Nc3ccc(F)cc3OC(C)C)c12

>  <CollectionName>  (72) 
emolecules

>  <LOG PLASMA PROTEIN BINDING (RAT) (% unbound)>  (72) 
0.966376423089

>  <Internal ID>  (72) 
Mol72

>  <Source>  (72) 
Biogen

$$$$
2066408
     RDKit          2D

 21 23  0  0  0  0  0  0  0  0999 V2000
    7.4492    0.7164    0.0000 O   0  0  0  0  0  0  0  0  0  0  0  0
    6.6222    0.7164    0.0000 C   0  0  0  0  0  0  0  0  0  0  0  0
    6.2087    0.0002    0.0000 C   0  0  0  0  0  0  0  0  0  0  0  0
    6.6222   -0.7160    0.0000 C   0  0  0  0  0  0  0  0  0  0  0  0
    6.2087   -1.4322    0.0000 C   0  0  0  0  0  0  0  0  0  0  0  0
    5.3817   -1.4322    0.0000 C   0  0  0  0  0  0  0  0  0  0  0  0
    4.9682   -0.7160    0.0000 C   0  0  0  0  0  0  0  0  0  0  0  0
    5.3817    0.0002    0.0000 N   0  0  0  0  0  0  0  0  0  0  0  0
    4.9682    0.7164    0.0000 C   0  0  0  0  0  0  0  0  0  0  0  0
    4.1412    0.7164    0.0000 C   0  0  0  0  0  0  0  0  0  0  0  0
    3.7271    0.0005    0.0000 C   0  0  0  0  0  0  0  0  0  0  0  0
    2.8989    0.0005    0.0000 C   0  0  0  0  0  0  0  0  0  0  0  0
    2.4847    0.7164    0.0000 C   0  0  0  0  0  0  0  0  0  0  0  0
    2.8989    1.4322    0.0000 C   0  0  0  0  0  0  0  0  0  0  0  0
    3.7271    1.4322    0.0000 C   0  0  0  0  0  0  0  0  0  0  0  0
    1.6565    0.7164    0.0000 C   0  0  0  0  0  0  0  0  0  0  0  0
    1.2424    0.0005    0.0000 C   0  0  0  0  0  0  0  0  0  0  0  0
    0.4141    0.0005    0.0000 C   0  0  0  0  0  0  0  0  0  0  0  0
    0.0000    0.7164    0.0000 C   0  0  0  0  0  0  0  0  0  0  0  0
    0.4141    1.4322    0.0000 C   0  0  0  0  0  0  0  0  0  0  0  0
    1.2424    1.4322    0.0000 C   0  0  0  0  0  0  0  0  0  0  0  0
  1  2  1  0
  2  3  1  0
  3  8  1  0
  3  4  1  0
  4  5  1  0
  5  6  1  0
  6  7  1  0
  7  8  1  0
  8  9  1  0
  9 10  1  0
 10 15  1  0
 10 11  2  0
 11 12  1  0
 12 13  2  0
 13 14  1  0
 14 15  2  0
 13 16  1  0
 16 21  1  0
 16 17  2  0
 17 18  1  0
 18 19  2  0
 19 20  1  0
 20 21  2  0
M  END
>  <SMILES>  (73) 
OCC1CCCCN1Cc1ccc(-c2ccccc2)cc1

>  <CollectionName>  (73) 
emolecules

>  <LOG PLASMA PROTEIN BINDING (RAT) (% unbound)>  (73) 
1.39492424424

>  <Internal ID>  (73) 
Mol73

>  <Source>  (73) 
Biogen

$$$$
89942016
     RDKit          2D

 30 34  0  0  0  0  0  0  0  0999 V2000
    2.2594    3.6316    0.0000 N   0  0  0  0  0  0  0  0  0  0  0  0
    2.2594    2.8046    0.0000 C   0  0  0  0  0  0  0  0  0  0  0  0
    1.5436    2.3904    0.0000 N   0  0  0  0  0  0  0  0  0  0  0  0
    1.5436    1.5622    0.0000 C   0  0  0  0  0  0  0  0  0  0  0  0
    2.2594    1.1481    0.0000 C   0  0  0  0  0  0  0  0  0  0  0  0
    2.2594    0.3211    0.0000 C   0  0  0  0  0  0  0  0  0  0  0  0
    2.9756   -0.0924    0.0000 O   0  0  0  0  0  0  0  0  0  0  0  0
    1.5432   -0.0924    0.0000 N   0  0  0  0  0  0  0  0  0  0  0  0
    1.5432   -0.9194    0.0000 C   0  0  0  0  0  0  0  0  0  0  0  0
    2.1280   -1.5042    0.0000 C   0  0  0  0  0  0  0  0  0  0  0  0
    1.5432   -2.0890    0.0000 N   0  0  0  0  0  0  0  0  0  0  0  0
    0.9584   -1.5042    0.0000 C   0  0  0  0  0  0  0  0  0  0  0  0
    1.5432   -2.9160    0.0000 C   0  0  0  0  0  0  0  0  0  0  0  0
    2.2594   -3.3295    0.0000 O   0  0  0  0  0  0  0  0  0  0  0  0
    0.8270   -3.3295    0.0000 C   0  0  0  0  0  0  0  0  0  0  0  0
    0.4135   -4.0457    0.0000 C   0  0  0  0  0  0  0  0  0  0  0  0
    0.0000   -3.3295    0.0000 C   0  0  0  0  0  0  0  0  0  0  0  0
    2.9752    1.5622    0.0000 C   0  0  0  0  0  0  0  0  0  0  0  0
    3.6970    1.1481    0.0000 C   0  0  0  0  0  0  0  0  0  0  0  0
    4.4128    1.5622    0.0000 C   0  0  0  0  0  0  0  0  0  0  0  0
    4.4128    2.3904    0.0000 C   0  0  0  0  0  0  0  0  0  0  0  0
    3.6970    2.8046    0.0000 N   0  0  0  0  0  0  0  0  0  0  0  0
    2.9752    2.3904    0.0000 C   0  0  0  0  0  0  0  0  0  0  0  0
    5.1287    2.8046    0.0000 C   0  0  0  0  0  0  0  0  0  0  0  0
    5.1280    3.6316    0.0000 C   0  0  0  0  0  0  0  0  0  0  0  0
    5.8438    4.0457    0.0000 C   0  0  0  0  0  0  0  0  0  0  0  0
    6.5604    3.6328    0.0000 C   0  0  0  0  0  0  0  0  0  0  0  0
    6.5611    2.8058    0.0000 C   0  0  0  0  0  0  0  0  0  0  0  0
    7.2777    2.3929    0.0000 F   0  0  0  0  0  0  0  0  0  0  0  0
    5.8453    2.3917    0.0000 C   0  0  0  0  0  0  0  0  0  0  0  0
  1  2  1  0
  2 23  2  0
  2  3  1  0
  3  4  2  0
  4  5  1  0
  5  6  1  0
  6  7  2  0
  6  8  1  0
  8  9  1  0
  9 12  1  0
  9 10  1  0
 10 11  1  0
 11 12  1  0
 11 13  1  0
 13 14  2  0
 13 15  1  0
 15 17  1  0
 15 16  1  0
 16 17  1  0
  5 18  2  0
 18 23  1  0
 18 19  1  0
 19 20  2  0
 20 21  1  0
 21 22  2  0
 22 23  1  0
 21 24  1  0
 24 30  1  0
 24 25  2  0
 25 26  1  0
 26 27  2  0
 27 28  1  0
 28 29  1  0
 28 30  2  0
M  END
>  <SMILES>  (74) 
Nc1ncc(C(=O)NC2CN(C(=O)C3CC3)C2)c2ccc(-c3cccc(F)c3)nc12

>  <CollectionName>  (74) 
emolecules

>  <LOG PLASMA PROTEIN BINDING (RAT) (% unbound)>  (74) 
0.382197210377

>  <Internal ID>  (74) 
Mol74

>  <Source>  (74) 
Biogen

$$$$
72973189
     RDKit          2D

 29 32  0  0  0  0  0  0  0  0999 V2000
    7.3787   -3.1456    0.0000 C   0  0  0  0  0  0  0  0  0  0  0  0
    6.6225   -2.8106    0.0000 C   0  0  0  0  0  0  0  0  0  0  0  0
    6.7105   -3.6329    0.0000 C   0  0  0  0  0  0  0  0  0  0  0  0
    5.8002   -2.8986    0.0000 C   0  0  0  0  0  0  0  0  0  0  0  0
    5.3129   -2.2304    0.0000 C   0  0  0  0  0  0  0  0  0  0  0  0
    5.6479   -1.4743    0.0000 C   0  0  0  0  0  0  0  0  0  0  0  0
    6.4702   -1.3863    0.0000 C   0  0  0  0  0  0  0  0  0  0  0  0
    6.3823   -0.5640    0.0000 C   0  0  0  0  0  0  0  0  0  0  0  0
    7.1384   -0.8990    0.0000 C   0  0  0  0  0  0  0  0  0  0  0  0
    6.9575   -2.0545    0.0000 N   0  0  0  0  0  0  0  0  0  0  0  0
    4.4906   -2.3183    0.0000 O   0  0  0  0  0  0  0  0  0  0  0  0
    4.0033   -1.6502    0.0000 C   0  0  0  0  0  0  0  0  0  0  0  0
    4.3383   -0.8940    0.0000 C   0  0  0  0  0  0  0  0  0  0  0  0
    3.8510   -0.2259    0.0000 C   0  0  0  0  0  0  0  0  0  0  0  0
    3.0287   -0.3138    0.0000 C   0  0  0  0  0  0  0  0  0  0  0  0
    2.6937   -1.0699    0.0000 N   0  0  0  0  0  0  0  0  0  0  0  0
    3.1810   -1.7381    0.0000 N   0  0  0  0  0  0  0  0  0  0  0  0
    2.5414    0.3544    0.0000 C   0  0  0  0  0  0  0  0  0  0  0  0
    2.8763    1.1105    0.0000 C   0  0  0  0  0  0  0  0  0  0  0  0
    2.3890    1.7786    0.0000 C   0  0  0  0  0  0  0  0  0  0  0  0
    1.5667    1.6907    0.0000 C   0  0  0  0  0  0  0  0  0  0  0  0
    1.2317    0.9346    0.0000 C   0  0  0  0  0  0  0  0  0  0  0  0
    1.7190    0.2664    0.0000 C   0  0  0  0  0  0  0  0  0  0  0  0
    1.3840   -0.4897    0.0000 O   0  0  0  0  0  0  0  0  0  0  0  0
    1.0794    2.3589    0.0000 C   0  0  0  0  0  0  0  0  0  0  0  0
    0.2536    2.3589    0.0000 C   0  0  0  0  0  0  0  0  0  0  0  0
    0.0000    3.1434    0.0000 N   0  0  0  0  0  0  0  0  0  0  0  0
    0.6665    3.6329    0.0000 N   0  0  0  0  0  0  0  0  0  0  0  0
    1.3330    3.1434    0.0000 C   0  0  0  0  0  0  0  0  0  0  0  0
  1  2  1  0
  2 10  1  0
  2  3  1  0
  2  4  1  0
  4  5  1  0
  5  6  1  0
  6  7  1  0
  7  8  1  0
  7  9  1  0
  7 10  1  0
  5 11  1  0
 11 12  1  0
 12 17  1  0
 12 13  2  0
 13 14  1  0
 14 15  2  0
 15 16  1  0
 16 17  2  0
 15 18  1  0
 18 23  1  0
 18 19  2  0
 19 20  1  0
 20 21  2  0
 21 22  1  0
 22 23  2  0
 23 24  1  0
 21 25  1  0
 25 29  2  0
 25 26  1  0
 26 27  2  0
 27 28  1  0
 28 29  1  0
M  END
>  <SMILES>  (75) 
CC1(C)CC(Oc2ccc(-c3ccc(-c4cn[nH]c4)cc3O)nn2)CC(C)(C)N1

>  <CollectionName>  (75) 
emolecules

>  <LOG PLASMA PROTEIN BINDING (RAT) (% unbound)>  (75) 
1.24196961191

>  <Internal ID>  (75) 
Mol75

>  <Source>  (75) 
Biogen

$$$$
32234428
     RDKit          2D

 24 27  0  0  0  0  0  0  0  0999 V2000
    0.0784   -0.7778    0.0000 C   0  0  0  0  0  0  0  0  0  0  0  0
    0.4141   -0.0220    0.0000 C   0  0  0  0  0  0  0  0  0  0  0  0
    0.0000    0.6938    0.0000 N   0  0  0  0  0  0  0  0  0  0  0  0
    0.5528    1.3089    0.0000 N   0  0  0  0  0  0  0  0  0  0  0  0
    1.3086    0.9731    0.0000 C   0  0  0  0  0  0  0  0  0  0  0  0
    1.2229    0.1506    0.0000 O   0  0  0  0  0  0  0  0  0  0  0  0
    2.0245    1.3873    0.0000 C   0  0  0  0  0  0  0  0  0  0  0  0
    2.0245    2.2155    0.0000 C   0  0  0  0  0  0  0  0  0  0  0  0
    2.7403    2.6296    0.0000 C   0  0  0  0  0  0  0  0  0  0  0  0
    3.4562    2.2155    0.0000 C   0  0  0  0  0  0  0  0  0  0  0  0
    4.2430    2.4699    0.0000 O   0  0  0  0  0  0  0  0  0  0  0  0
    4.7340    1.8014    0.0000 C   0  0  0  0  0  0  0  0  0  0  0  0
    4.2430    1.1329    0.0000 C   0  0  0  0  0  0  0  0  0  0  0  0
    4.4954    0.3453    0.0000 C   0  0  0  0  0  0  0  0  0  0  0  0
    5.3036    0.1702    0.0000 C   0  0  0  0  0  0  0  0  0  0  0  0
    5.5561   -0.6174    0.0000 C   0  0  0  0  0  0  0  0  0  0  0  0
    5.0002   -1.2297    0.0000 C   0  0  0  0  0  0  0  0  0  0  0  0
    4.1920   -1.0546    0.0000 C   0  0  0  0  0  0  0  0  0  0  0  0
    3.9396   -0.2670    0.0000 C   0  0  0  0  0  0  0  0  0  0  0  0
    5.2527   -2.0173    0.0000 S   0  0  0  0  0  0  0  0  0  0  0  0
    4.6968   -2.6296    0.0000 C   0  0  0  0  0  0  0  0  0  0  0  0
    6.0609   -2.1924    0.0000 O   0  0  0  0  0  0  0  0  0  0  0  0
    3.4562    1.3873    0.0000 C   0  0  0  0  0  0  0  0  0  0  0  0
    2.7403    0.9731    0.0000 C   0  0  0  0  0  0  0  0  0  0  0  0
  1  2  1  0
  2  6  1  0
  2  3  2  0
  3  4  1  0
  4  5  2  0
  5  6  1  0
  5  7  1  0
  7 24  1  0
  7  8  2  0
  8  9  1  0
  9 10  2  0
 10 23  1  0
 10 11  1  0
 11 12  1  0
 12 13  2  0
 13 14  1  0
 14 19  1  0
 14 15  2  0
 15 16  1  0
 16 17  2  0
 17 18  1  0
 18 19  2  0
 17 20  1  0
 20 21  1  0
 20 22  2  0
 13 23  1  0
 23 24  2  0
M  END
>  <SMILES>  (76) 
Cc1nnc(-c2ccc3occ(-c4ccc(S(C)=O)cc4)c3c2)o1

>  <CollectionName>  (76) 
emolecules

>  <LOG PLASMA PROTEIN BINDING (RAT) (% unbound)>  (76) 
1.07798529103

>  <Internal ID>  (76) 
Mol76

>  <Source>  (76) 
Biogen

$$$$
202517
     RDKit          2D

 31 34  0  0  0  0  0  0  0  0999 V2000
    1.7515   -3.4946    0.0000 C   0  0  0  0  0  0  0  0  0  0  0  0
    2.5606   -3.3234    0.0000 C   0  0  0  0  0  0  0  0  0  0  0  0
    3.1747   -3.8773    0.0000 N   0  0  0  0  0  0  0  0  0  0  0  0
    3.8912   -3.4644    0.0000 C   0  0  0  0  0  0  0  0  0  0  0  0
    3.7200   -2.6553    0.0000 S   0  0  0  0  0  0  0  0  0  0  0  0
    2.8976   -2.5682    0.0000 C   0  0  0  0  0  0  0  0  0  0  0  0
    2.4847   -1.8516    0.0000 C   0  0  0  0  0  0  0  0  0  0  0  0
    1.6577   -1.8509    0.0000 O   0  0  0  0  0  0  0  0  0  0  0  0
    2.8989   -1.1358    0.0000 N   0  0  0  0  0  0  0  0  0  0  0  0
    3.7271   -1.1358    0.0000 C   0  0  0  0  0  0  0  0  0  0  0  0
    4.1412   -0.4199    0.0000 C   0  0  0  0  0  0  0  0  0  0  0  0
    3.7271    0.2959    0.0000 C   0  0  0  0  0  0  0  0  0  0  0  0
    2.8989    0.2959    0.0000 C   0  0  0  0  0  0  0  0  0  0  0  0
    2.4847   -0.4199    0.0000 C   0  0  0  0  0  0  0  0  0  0  0  0
    1.6565   -0.4199    0.0000 C   0  0  0  0  0  0  0  0  0  0  0  0
    1.2424   -1.1358    0.0000 N   0  0  0  0  0  0  0  0  0  0  0  0
    0.4141   -1.1358    0.0000 C   0  0  0  0  0  0  0  0  0  0  0  0
    0.0000   -1.8516    0.0000 N   0  0  0  0  0  0  0  0  0  0  0  0
    0.0000   -0.4199    0.0000 N   0  0  0  0  0  0  0  0  0  0  0  0
    0.4141    0.2959    0.0000 C   0  0  0  0  0  0  0  0  0  0  0  0
    1.2424    0.2959    0.0000 C   0  0  0  0  0  0  0  0  0  0  0  0
    1.6565    1.0118    0.0000 C   0  0  0  0  0  0  0  0  0  0  0  0
    2.4835    1.0110    0.0000 C   0  0  0  0  0  0  0  0  0  0  0  0
    2.8976    1.7269    0.0000 C   0  0  0  0  0  0  0  0  0  0  0  0
    2.4847    2.4434    0.0000 C   0  0  0  0  0  0  0  0  0  0  0  0
    1.6577    2.4442    0.0000 C   0  0  0  0  0  0  0  0  0  0  0  0
    1.2436    1.7283    0.0000 C   0  0  0  0  0  0  0  0  0  0  0  0
    1.2449    3.1607    0.0000 C   0  0  0  0  0  0  0  0  0  0  0  0
    0.5283    2.7479    0.0000 F   0  0  0  0  0  0  0  0  0  0  0  0
    0.8320    3.8773    0.0000 F   0  0  0  0  0  0  0  0  0  0  0  0
    1.9614    3.5736    0.0000 F   0  0  0  0  0  0  0  0  0  0  0  0
  1  2  1  0
  2  6  2  0
  2  3  1  0
  3  4  2  0
  4  5  1  0
  5  6  1  0
  6  7  1  0
  7  8  2  0
  7  9  1  0
  9 14  1  0
  9 10  1  0
 10 11  1  0
 11 12  1  0
 12 13  1  0
 13 14  1  0
 14 15  1  0
 15 21  1  0
 15 16  2  0
 16 17  1  0
 17 18  1  0
 17 19  2  0
 19 20  1  0
 20 21  2  0
 21 22  1  0
 22 27  1  0
 22 23  2  0
 23 24  1  0
 24 25  2  0
 25 26  1  0
 26 27  2  0
 26 28  1  0
 28 29  1  0
 28 30  1  0
 28 31  1  0
M  END
>  <SMILES>  (77) 
Cc1ncsc1C(=O)N1CCCCC1c1nc(N)ncc1-c1cccc(C(F)(F)F)c1

>  <CollectionName>  (77) 
emolecules

>  <LOG PLASMA PROTEIN BINDING (RAT) (% unbound)>  (77) 
0.862548769525

>  <Internal ID>  (77) 
Mol77

>  <Source>  (77) 
Biogen

$$$$
45636709
     RDKit          2D

 25 28  0  0  0  0  0  0  0  0999 V2000
    4.3024   -1.5310    0.0000 O   0  0  0  0  0  0  0  0  0  0  0  0
    4.3017   -0.7040    0.0000 C   0  0  0  0  0  0  0  0  0  0  0  0
    3.5851   -0.2912    0.0000 N   0  0  0  0  0  0  0  0  0  0  0  0
    2.8693   -0.7053    0.0000 C   0  0  0  0  0  0  0  0  0  0  0  0
    2.8693   -1.5335    0.0000 C   0  0  0  0  0  0  0  0  0  0  0  0
    2.1534   -1.9477    0.0000 C   0  0  0  0  0  0  0  0  0  0  0  0
    1.4317   -1.5335    0.0000 C   0  0  0  0  0  0  0  0  0  0  0  0
    0.7158   -1.9477    0.0000 C   0  0  0  0  0  0  0  0  0  0  0  0
    0.0000   -1.5335    0.0000 C   0  0  0  0  0  0  0  0  0  0  0  0
    0.0000   -0.7053    0.0000 C   0  0  0  0  0  0  0  0  0  0  0  0
    0.7158   -0.2912    0.0000 C   0  0  0  0  0  0  0  0  0  0  0  0
    1.4317   -0.7053    0.0000 C   0  0  0  0  0  0  0  0  0  0  0  0
    2.1534   -0.2912    0.0000 N   0  0  0  0  0  0  0  0  0  0  0  0
    5.0175   -0.2899    0.0000 C   0  0  0  0  0  0  0  0  0  0  0  0
    5.0168    0.5371    0.0000 C   0  0  0  0  0  0  0  0  0  0  0  0
    5.7327    0.9512    0.0000 C   0  0  0  0  0  0  0  0  0  0  0  0
    6.4492    0.5383    0.0000 C   0  0  0  0  0  0  0  0  0  0  0  0
    6.4499   -0.2887    0.0000 C   0  0  0  0  0  0  0  0  0  0  0  0
    5.7341   -0.7028    0.0000 C   0  0  0  0  0  0  0  0  0  0  0  0
    7.1651    0.9525    0.0000 N   0  0  0  0  0  0  0  0  0  0  0  0
    7.2508    1.7750    0.0000 C   0  0  0  0  0  0  0  0  0  0  0  0
    8.0596    1.9477    0.0000 C   0  0  0  0  0  0  0  0  0  0  0  0
    8.4737    1.2318    0.0000 O   0  0  0  0  0  0  0  0  0  0  0  0
    7.9209    0.6167    0.0000 C   0  0  0  0  0  0  0  0  0  0  0  0
    8.0935   -0.1920    0.0000 O   0  0  0  0  0  0  0  0  0  0  0  0
  1  2  2  0
  2  3  1  0
  3  4  1  0
  4 13  1  0
  4  5  2  0
  5  6  1  0
  6  7  2  0
  7 12  1  0
  7  8  1  0
  8  9  2  0
  9 10  1  0
 10 11  2  0
 11 12  1  0
 12 13  2  0
  2 14  1  0
 14 19  1  0
 14 15  2  0
 15 16  1  0
 16 17  2  0
 17 18  1  0
 18 19  2  0
 17 20  1  0
 20 24  1  0
 20 21  1  0
 21 22  1  0
 22 23  1  0
 23 24  1  0
 24 25  2  0
M  END
>  <SMILES>  (78) 
O=C(Nc1ccc2ccccc2n1)c1ccc(N2CCOC2=O)cc1

>  <CollectionName>  (78) 
emolecules

>  <LOG PLASMA PROTEIN BINDING (RAT) (% unbound)>  (78) 
0.0692980121155

>  <Internal ID>  (78) 
Mol78

>  <Source>  (78) 
Biogen

$$$$
104447483
     RDKit          2D

 29 31  0  0  1  0  0  0  0  0999 V2000
    0.2560    4.8337    0.0000 F   0  0  0  0  0  0  0  0  0  0  0  0
    0.9692    4.4151    0.0000 C   0  0  0  0  0  0  0  0  0  0  0  0
    1.3878    5.1283    0.0000 F   0  0  0  0  0  0  0  0  0  0  0  0
    1.6825    3.9965    0.0000 F   0  0  0  0  0  0  0  0  0  0  0  0
    0.5506    3.7018    0.0000 O   0  0  0  0  0  0  0  0  0  0  0  0
    0.9590    2.9827    0.0000 C   0  0  0  0  0  0  0  0  0  0  0  0
    0.5404    2.2695    0.0000 C   0  0  0  0  0  0  0  0  0  0  0  0
    0.9488    1.5503    0.0000 C   0  0  0  0  0  0  0  0  0  0  0  0
    1.7758    1.5444    0.0000 C   0  0  0  0  0  0  0  0  0  0  0  0
    2.1944    2.2577    0.0000 C   0  0  0  0  0  0  0  0  0  0  0  0
    1.7860    2.9768    0.0000 C   0  0  0  0  0  0  0  0  0  0  0  0
    2.1841    0.8253    0.0000 C   0  0  0  0  0  0  0  0  0  0  0  0
    3.0111    0.8194    0.0000 O   0  0  0  0  0  0  0  0  0  0  0  0
    1.7655    0.1121    0.0000 N   0  0  0  0  0  0  0  0  0  0  0  0
    2.1739   -0.6071    0.0000 C   0  0  0  0  0  0  0  0  0  0  0  0
    1.7553   -1.3203    0.0000 C   0  0  0  0  0  0  0  0  0  0  0  0
    2.1637   -2.0394    0.0000 C   0  0  0  0  0  0  0  0  0  0  0  0
    2.9907   -2.0454    0.0000 O   0  0  0  0  0  0  0  0  0  0  0  0
    1.7451   -2.7527    0.0000 N   0  0  0  0  0  0  0  0  0  0  0  0
    2.1534   -3.4718    0.0000 C   0  0  0  0  0  0  0  0  0  0  0  0
    2.8693   -3.8859    0.0000 C   0  0  0  0  0  0  0  0  0  0  0  0
    2.8693   -4.7142    0.0000 C   0  0  0  0  0  0  0  0  0  0  0  0
    2.1534   -5.1283    0.0000 C   0  0  0  0  0  0  0  0  0  0  0  0
    1.4317   -4.7142    0.0000 C   0  0  0  0  0  0  0  0  0  0  0  0
    0.7158   -5.1283    0.0000 C   0  0  0  0  0  0  0  0  0  0  0  0
    0.0000   -4.7142    0.0000 C   0  0  0  0  0  0  0  0  0  0  0  0
    0.0000   -3.8859    0.0000 C   0  0  0  0  0  0  0  0  0  0  0  0
    0.7158   -3.4718    0.0000 C   0  0  0  0  0  0  0  0  0  0  0  0
    1.4317   -3.8859    0.0000 C   0  0  0  0  0  0  0  0  0  0  0  0
  1  2  1  0
  2  3  1  0
  2  4  1  0
  2  5  1  0
  5  6  1  0
  6 11  2  0
  6  7  1  0
  7  8  2  0
  8  9  1  0
  9 10  2  0
 10 11  1  0
  9 12  1  0
 12 13  2  0
 12 14  1  0
 14 15  1  0
 15 16  1  0
 16 17  1  0
 17 18  2  0
 17 19  1  0
 20 19  1  6
 20 29  1  0
 20 21  1  0
 21 22  1  0
 22 23  1  0
 23 24  1  0
 24 29  2  0
 24 25  1  0
 25 26  2  0
 26 27  1  0
 27 28  2  0
 28 29  1  0
M  END
>  <SMILES>  (79) 
O=C(CCNC(=O)c1ccc(OC(F)(F)F)cc1)N[C@@H]1CCCc2ccccc21

>  <CollectionName>  (79) 
emolecules

>  <LOG PLASMA PROTEIN BINDING (RAT) (% unbound)>  (79) 
0.630427875025

>  <Internal ID>  (79) 
Mol79

>  <Source>  (79) 
Biogen

$$$$
300003450
     RDKit          2D

 20 22  0  0  0  0  0  0  0  0999 V2000
    0.1021    0.0776    0.0000 O   0  0  0  0  0  0  0  0  0  0  0  0
    0.9291    0.0776    0.0000 S   0  0  0  0  0  0  0  0  0  0  0  0
    1.7561    0.0776    0.0000 O   0  0  0  0  0  0  0  0  0  0  0  0
    0.9291   -0.7494    0.0000 N   0  0  0  0  0  0  0  0  0  0  0  0
    1.6742   -1.1082    0.0000 C   0  0  0  0  0  0  0  0  0  0  0  0
    1.8583   -1.9145    0.0000 C   0  0  0  0  0  0  0  0  0  0  0  0
    1.3426   -2.5611    0.0000 C   0  0  0  0  0  0  0  0  0  0  0  0
    0.5156   -2.5611    0.0000 N   0  0  0  0  0  0  0  0  0  0  0  0
    0.0000   -1.9145    0.0000 C   0  0  0  0  0  0  0  0  0  0  0  0
    0.1840   -1.1082    0.0000 C   0  0  0  0  0  0  0  0  0  0  0  0
    0.9291    0.9046    0.0000 C   0  0  0  0  0  0  0  0  0  0  0  0
    0.2133    1.3187    0.0000 C   0  0  0  0  0  0  0  0  0  0  0  0
    0.2133    2.1470    0.0000 C   0  0  0  0  0  0  0  0  0  0  0  0
    0.9291    2.5611    0.0000 C   0  0  0  0  0  0  0  0  0  0  0  0
    1.6450    2.1470    0.0000 C   0  0  0  0  0  0  0  0  0  0  0  0
    2.3667    2.5611    0.0000 C   0  0  0  0  0  0  0  0  0  0  0  0
    3.0826    2.1470    0.0000 N   0  0  0  0  0  0  0  0  0  0  0  0
    3.0826    1.3187    0.0000 C   0  0  0  0  0  0  0  0  0  0  0  0
    2.3667    0.9046    0.0000 C   0  0  0  0  0  0  0  0  0  0  0  0
    1.6450    1.3187    0.0000 C   0  0  0  0  0  0  0  0  0  0  0  0
  1  2  2  0
  2  3  2  0
  2  4  1  0
  4 10  1  0
  4  5  1  0
  5  6  1  0
  6  7  1  0
  7  8  1  0
  8  9  1  0
  9 10  1  0
  2 11  1  0
 11 20  1  0
 11 12  2  0
 12 13  1  0
 13 14  2  0
 14 15  1  0
 15 20  2  0
 15 16  1  0
 16 17  2  0
 17 18  1  0
 18 19  2  0
 19 20  1  0
M  END
>  <SMILES>  (80) 
O=S(=O)(c1cccc2cnccc12)N1CCCNCC1

>  <CollectionName>  (80) 
emolecules

>  <LOG PLASMA PROTEIN BINDING (RAT) (% unbound)>  (80) 
1.84432182089

>  <Internal ID>  (80) 
Mol80

>  <Source>  (80) 
Biogen

$$$$
317744209
     RDKit          2D

 35 39  0  0  0  0  0  0  0  0999 V2000
    1.4382   -6.2037    0.0000 C   0  0  0  0  0  0  0  0  0  0  0  0
    1.4374   -5.3767    0.0000 N   0  0  0  0  0  0  0  0  0  0  0  0
    2.1533   -4.9626    0.0000 C   0  0  0  0  0  0  0  0  0  0  0  0
    2.1526   -4.1356    0.0000 C   0  0  0  0  0  0  0  0  0  0  0  0
    1.4360   -3.7227    0.0000 N   0  0  0  0  0  0  0  0  0  0  0  0
    0.7202   -4.1369    0.0000 C   0  0  0  0  0  0  0  0  0  0  0  0
    0.7209   -4.9639    0.0000 C   0  0  0  0  0  0  0  0  0  0  0  0
    1.4353   -2.8957    0.0000 C   0  0  0  0  0  0  0  0  0  0  0  0
    0.7187   -2.4829    0.0000 C   0  0  0  0  0  0  0  0  0  0  0  0
    0.7180   -1.6559    0.0000 C   0  0  0  0  0  0  0  0  0  0  0  0
    1.4338   -1.2417    0.0000 C   0  0  0  0  0  0  0  0  0  0  0  0
    1.4331   -0.4147    0.0000 N   0  0  0  0  0  0  0  0  0  0  0  0
    2.1490   -0.0006    0.0000 C   0  0  0  0  0  0  0  0  0  0  0  0
    2.1490    0.8276    0.0000 N   0  0  0  0  0  0  0  0  0  0  0  0
    2.8648    1.2417    0.0000 C   0  0  0  0  0  0  0  0  0  0  0  0
    2.8648    2.0687    0.0000 O   0  0  0  0  0  0  0  0  0  0  0  0
    2.1486    2.4822    0.0000 C   0  0  0  0  0  0  0  0  0  0  0  0
    1.4324    2.0687    0.0000 C   0  0  0  0  0  0  0  0  0  0  0  0
    0.7162    2.4822    0.0000 C   0  0  0  0  0  0  0  0  0  0  0  0
    0.7162    3.3092    0.0000 C   0  0  0  0  0  0  0  0  0  0  0  0
    1.4324    3.7227    0.0000 C   0  0  0  0  0  0  0  0  0  0  0  0
    1.4324    4.5497    0.0000 N   0  0  0  0  0  0  0  0  0  0  0  0
    0.7162    4.9632    0.0000 C   0  0  0  0  0  0  0  0  0  0  0  0
    0.0000    4.5497    0.0000 O   0  0  0  0  0  0  0  0  0  0  0  0
    0.7162    5.7902    0.0000 C   0  0  0  0  0  0  0  0  0  0  0  0
    0.0000    6.2037    0.0000 C   0  0  0  0  0  0  0  0  0  0  0  0
    2.1486    3.3092    0.0000 C   0  0  0  0  0  0  0  0  0  0  0  0
    3.5807    0.8276    0.0000 C   0  0  0  0  0  0  0  0  0  0  0  0
    4.3675    1.0820    0.0000 O   0  0  0  0  0  0  0  0  0  0  0  0
    4.8585    0.4135    0.0000 C   0  0  0  0  0  0  0  0  0  0  0  0
    4.3675   -0.2550    0.0000 C   0  0  0  0  0  0  0  0  0  0  0  0
    3.5807   -0.0006    0.0000 C   0  0  0  0  0  0  0  0  0  0  0  0
    2.8648   -0.4147    0.0000 N   0  0  0  0  0  0  0  0  0  0  0  0
    2.1504   -1.6546    0.0000 C   0  0  0  0  0  0  0  0  0  0  0  0
    2.1511   -2.4816    0.0000 C   0  0  0  0  0  0  0  0  0  0  0  0
  1  2  1  0
  2  7  1  0
  2  3  1  0
  3  4  1  0
  4  5  1  0
  5  6  1  0
  6  7  1  0
  5  8  1  0
  8 35  1  0
  8  9  2  0
  9 10  1  0
 10 11  2  0
 11 12  1  0
 12 13  1  0
 13 33  1  0
 13 14  2  0
 14 15  1  0
 15 16  1  0
 16 17  1  0
 17 27  1  0
 17 18  2  0
 18 19  1  0
 19 20  2  0
 20 21  1  0
 21 22  1  0
 22 23  1  0
 23 24  2  0
 23 25  1  0
 25 26  2  0
 21 27  2  0
 15 28  2  0
 28 32  1  0
 28 29  1  0
 29 30  1  0
 30 31  2  0
 31 32  1  0
 32 33  2  0
 11 34  1  0
 34 35  2  0
M  END
>  <SMILES>  (81) 
C=CC(=O)Nc1cccc(Oc2nc(Nc3ccc(N4CCN(C)CC4)cc3)nc3ccoc23)c1

>  <CollectionName>  (81) 
emolecules

>  <LOG PLASMA PROTEIN BINDING (RAT) (% unbound)>  (81) 
-0.20830935098

>  <Internal ID>  (81) 
Mol81

>  <Source>  (81) 
Biogen

$$$$
13329354
     RDKit          2D

 20 21  0  0  0  0  0  0  0  0999 V2000
   -3.5148    1.5432    0.0000 C   0  0  0  0  0  0  0  0  0  0  0  0
   -3.1012    0.8270    0.0000 C   0  0  0  0  0  0  0  0  0  0  0  0
   -2.2743    0.8270    0.0000 N   0  0  0  0  0  0  0  0  0  0  0  0
   -1.8607    1.5432    0.0000 C   0  0  0  0  0  0  0  0  0  0  0  0
   -1.0338    1.5432    0.0000 C   0  0  0  0  0  0  0  0  0  0  0  0
   -0.6202    0.8270    0.0000 N   0  0  0  0  0  0  0  0  0  0  0  0
   -1.0338    0.1108    0.0000 C   0  0  0  0  0  0  0  0  0  0  0  0
   -1.8607    0.1108    0.0000 C   0  0  0  0  0  0  0  0  0  0  0  0
    0.2068    0.8270    0.0000 S   0  0  0  0  0  0  0  0  0  0  0  0
    0.2068   -0.0000    0.0000 O   0  0  0  0  0  0  0  0  0  0  0  0
    0.2068    1.6540    0.0000 O   0  0  0  0  0  0  0  0  0  0  0  0
    1.0338    0.8270    0.0000 C   0  0  0  0  0  0  0  0  0  0  0  0
    1.4473    1.5432    0.0000 C   0  0  0  0  0  0  0  0  0  0  0  0
    1.0338    2.2594    0.0000 C   0  0  0  0  0  0  0  0  0  0  0  0
    1.4473    2.9756    0.0000 C   0  0  0  0  0  0  0  0  0  0  0  0
    2.2743    2.9756    0.0000 C   0  0  0  0  0  0  0  0  0  0  0  0
    2.6878    3.6918    0.0000 Cl  0  0  0  0  0  0  0  0  0  0  0  0
    2.6878    2.2594    0.0000 C   0  0  0  0  0  0  0  0  0  0  0  0
    3.5148    2.2594    0.0000 Cl  0  0  0  0  0  0  0  0  0  0  0  0
    2.2743    1.5432    0.0000 C   0  0  0  0  0  0  0  0  0  0  0  0
  1  2  1  0
  2  3  1  0
  3  8  1  0
  3  4  1  0
  4  5  1  0
  5  6  1  0
  6  7  1  0
  7  8  1  0
  6  9  1  0
  9 10  2  0
  9 11  2  0
  9 12  1  0
 12 13  1  0
 13 20  1  0
 13 14  2  0
 14 15  1  0
 15 16  2  0
 16 17  1  0
 16 18  1  0
 18 19  1  0
 18 20  2  0
M  END
>  <SMILES>  (82) 
CCN1CCN(S(=O)(=O)Cc2ccc(Cl)c(Cl)c2)CC1

>  <CollectionName>  (82) 
emolecules

>  <LOG PLASMA PROTEIN BINDING (RAT) (% unbound)>  (82) 
1.07184520113

>  <Internal ID>  (82) 
Mol82

>  <Source>  (82) 
Biogen

$$$$
49837463
     RDKit          2D

 30 34  0  0  0  0  0  0  0  0999 V2000
    5.7963   -3.7627    0.0000 O   0  0  0  0  0  0  0  0  0  0  0  0
    6.2098   -3.0465    0.0000 C   0  0  0  0  0  0  0  0  0  0  0  0
    5.7963   -2.3303    0.0000 N   0  0  0  0  0  0  0  0  0  0  0  0
    4.9693   -2.3303    0.0000 C   0  0  0  0  0  0  0  0  0  0  0  0
    4.4783   -2.9988    0.0000 N   0  0  0  0  0  0  0  0  0  0  0  0
    3.6914   -2.7444    0.0000 C   0  0  0  0  0  0  0  0  0  0  0  0
    2.9756   -3.1585    0.0000 C   0  0  0  0  0  0  0  0  0  0  0  0
    2.2598   -2.7444    0.0000 C   0  0  0  0  0  0  0  0  0  0  0  0
    2.2598   -1.9161    0.0000 C   0  0  0  0  0  0  0  0  0  0  0  0
    2.9756   -1.5020    0.0000 C   0  0  0  0  0  0  0  0  0  0  0  0
    2.9756   -0.6750    0.0000 C   0  0  0  0  0  0  0  0  0  0  0  0
    3.6918   -0.2615    0.0000 C   0  0  0  0  0  0  0  0  0  0  0  0
    3.6918    0.5655    0.0000 C   0  0  0  0  0  0  0  0  0  0  0  0
    2.9756    0.9790    0.0000 C   0  0  0  0  0  0  0  0  0  0  0  0
    2.9756    1.8060    0.0000 C   0  0  0  0  0  0  0  0  0  0  0  0
    2.2594    2.2195    0.0000 N   0  0  0  0  0  0  0  0  0  0  0  0
    1.5432    1.8060    0.0000 C   0  0  0  0  0  0  0  0  0  0  0  0
    0.8270    2.2195    0.0000 C   0  0  0  0  0  0  0  0  0  0  0  0
    0.8270    3.0465    0.0000 S   0  0  0  0  0  0  0  0  0  0  0  0
    0.0000    3.0465    0.0000 O   0  0  0  0  0  0  0  0  0  0  0  0
    0.4135    3.7627    0.0000 O   0  0  0  0  0  0  0  0  0  0  0  0
    1.5432    3.4600    0.0000 C   0  0  0  0  0  0  0  0  0  0  0  0
    2.2594    3.0465    0.0000 C   0  0  0  0  0  0  0  0  0  0  0  0
    2.2594    0.5655    0.0000 C   0  0  0  0  0  0  0  0  0  0  0  0
    2.2594   -0.2615    0.0000 C   0  0  0  0  0  0  0  0  0  0  0  0
    3.6914   -1.9161    0.0000 N   0  0  0  0  0  0  0  0  0  0  0  0
    4.4783   -1.6618    0.0000 N   0  0  0  0  0  0  0  0  0  0  0  0
    7.0368   -3.0465    0.0000 C   0  0  0  0  0  0  0  0  0  0  0  0
    7.7530   -3.4600    0.0000 C   0  0  0  0  0  0  0  0  0  0  0  0
    7.7530   -2.6330    0.0000 C   0  0  0  0  0  0  0  0  0  0  0  0
  1  2  2  0
  2  3  1  0
  3  4  1  0
  4 27  2  0
  4  5  1  0
  5  6  2  0
  6 26  1  0
  6  7  1  0
  7  8  2  0
  8  9  1  0
  9 10  2  0
 10 11  1  0
 11 25  1  0
 11 12  2  0
 12 13  1  0
 13 14  2  0
 14 15  1  0
 15 16  1  0
 16 23  1  0
 16 17  1  0
 17 18  1  0
 18 19  1  0
 19 20  2  0
 19 21  2  0
 19 22  1  0
 22 23  1  0
 14 24  1  0
 24 25  2  0
 10 26  1  0
 26 27  1  0
  2 28  1  0
 28 30  1  0
 28 29  1  0
 29 30  1  0
M  END
>  <SMILES>  (83) 
O=C(Nc1nc2cccc(-c3ccc(CN4CCS(=O)(=O)CC4)cc3)n2n1)C1CC1

>  <CollectionName>  (83) 
emolecules

>  <LOG PLASMA PROTEIN BINDING (RAT) (% unbound)>  (83) 
1.60185365244

>  <Internal ID>  (83) 
Mol83

>  <Source>  (83) 
Biogen

$$$$
316273071
     RDKit          2D

 35 37  0  0  1  0  0  0  0  0999 V2000
   -3.5983    5.6912    0.0000 C   0  0  0  0  0  0  0  0  0  0  0  0
   -3.1848    4.9750    0.0000 C   0  0  0  0  0  0  0  0  0  0  0  0
   -2.3578    4.9750    0.0000 N   0  0  0  0  0  0  0  0  0  0  0  0
   -1.8717    5.6441    0.0000 C   0  0  0  0  0  0  0  0  0  0  0  0
   -2.1272    6.4306    0.0000 C   0  0  0  0  0  0  0  0  0  0  0  0
   -1.5738    7.0452    0.0000 O   0  0  0  0  0  0  0  0  0  0  0  0
   -1.0851    5.3885    0.0000 N   0  0  0  0  0  0  0  0  0  0  0  0
   -1.0851    4.5615    0.0000 N   0  0  0  0  0  0  0  0  0  0  0  0
   -0.4161    4.0754    0.0000 C   0  0  0  0  0  0  0  0  0  0  0  0
    0.3394    4.4118    0.0000 C   0  0  0  0  0  0  0  0  0  0  0  0
    1.0085    3.9257    0.0000 C   0  0  0  0  0  0  0  0  0  0  0  0
    1.7640    4.2621    0.0000 O   0  0  0  0  0  0  0  0  0  0  0  0
    1.8504    5.0845    0.0000 C   0  0  0  0  0  0  0  0  0  0  0  0
    2.6729    4.9981    0.0000 C   0  0  0  0  0  0  0  0  0  0  0  0
    1.9369    5.9070    0.0000 C   0  0  0  0  0  0  0  0  0  0  0  0
    1.1144    5.9935    0.0000 F   0  0  0  0  0  0  0  0  0  0  0  0
    2.0233    6.7295    0.0000 F   0  0  0  0  0  0  0  0  0  0  0  0
    2.7593    5.8206    0.0000 F   0  0  0  0  0  0  0  0  0  0  0  0
    0.9220    3.1032    0.0000 C   0  0  0  0  0  0  0  0  0  0  0  0
    0.1665    2.7669    0.0000 C   0  0  0  0  0  0  0  0  0  0  0  0
   -0.5025    3.2530    0.0000 C   0  0  0  0  0  0  0  0  0  0  0  0
   -1.2580    2.9166    0.0000 F   0  0  0  0  0  0  0  0  0  0  0  0
    1.5911    2.6171    0.0000 C   0  0  0  0  0  0  0  0  0  0  0  0
    2.3466    2.9535    0.0000 O   0  0  0  0  0  0  0  0  0  0  0  0
    1.5046    1.7947    0.0000 N   0  0  0  0  0  0  0  0  0  0  0  0
    2.1737    1.3086    0.0000 C   0  0  0  0  0  0  0  0  0  0  0  0
    2.9292    1.6449    0.0000 C   0  0  0  0  0  0  0  0  0  0  0  0
    3.0156    2.4674    0.0000 F   0  0  0  0  0  0  0  0  0  0  0  0
    3.5983    1.1588    0.0000 C   0  0  0  0  0  0  0  0  0  0  0  0
    3.5118    0.3364    0.0000 C   0  0  0  0  0  0  0  0  0  0  0  0
    2.7563   -0.0000    0.0000 C   0  0  0  0  0  0  0  0  0  0  0  0
    2.0873    0.4861    0.0000 C   0  0  0  0  0  0  0  0  0  0  0  0
    1.3318    0.1497    0.0000 Cl  0  0  0  0  0  0  0  0  0  0  0  0
   -1.8717    4.3060    0.0000 C   0  0  0  0  0  0  0  0  0  0  0  0
   -2.1272    3.5194    0.0000 O   0  0  0  0  0  0  0  0  0  0  0  0
  1  2  1  0
  2  3  1  0
  3 34  1  0
  3  4  1  0
  4  5  1  0
  5  6  1  0
  4  7  2  0
  7  8  1  0
  8  9  1  0
  9 21  1  0
  9 10  2  0
 10 11  1  0
 11 12  1  0
 12 13  1  0
 13 14  1  1
 13 15  1  0
 15 16  1  0
 15 17  1  0
 15 18  1  0
 11 19  2  0
 19 20  1  0
 20 21  2  0
 21 22  1  0
 19 23  1  0
 23 24  2  0
 23 25  1  0
 25 26  1  0
 26 32  1  0
 26 27  2  0
 27 28  1  0
 27 29  1  0
 29 30  2  0
 30 31  1  0
 31 32  2  0
 32 33  1  0
  8 34  1  0
 34 35  2  0
M  END
>  <SMILES>  (84) 
CCn1c(CO)nn(-c2cc(O[C@@H](C)C(F)(F)F)c(C(=O)Nc3c(F)cccc3Cl)cc2F)c1=O

>  <CollectionName>  (84) 
emolecules

>  <LOG PLASMA PROTEIN BINDING (RAT) (% unbound)>  (84) 
0.876910311345

>  <Internal ID>  (84) 
Mol84

>  <Source>  (84) 
Biogen

$$$$
49259954
     RDKit          2D

 26 27  0  0  0  0  0  0  0  0999 V2000
    0.0000    0.0000    0.0000 Cl  0  0  0  0  0  0  0  0  0  0  0  0
    6.6222    2.5063    0.0000 C   0  0  0  0  0  0  0  0  0  0  0  0
    6.2087    1.7901    0.0000 C   0  0  0  0  0  0  0  0  0  0  0  0
    6.6222    1.0739    0.0000 N   0  0  0  0  0  0  0  0  0  0  0  0
    6.2087    0.3577    0.0000 C   0  0  0  0  0  0  0  0  0  0  0  0
    6.6222   -0.3585    0.0000 C   0  0  0  0  0  0  0  0  0  0  0  0
    6.2087   -1.0747    0.0000 C   0  0  0  0  0  0  0  0  0  0  0  0
    5.3817   -1.0747    0.0000 C   0  0  0  0  0  0  0  0  0  0  0  0
    4.9676   -0.3588    0.0000 C   0  0  0  0  0  0  0  0  0  0  0  0
    4.1394   -0.3588    0.0000 C   0  0  0  0  0  0  0  0  0  0  0  0
    3.7252   -1.0747    0.0000 C   0  0  0  0  0  0  0  0  0  0  0  0
    2.8970   -1.0747    0.0000 C   0  0  0  0  0  0  0  0  0  0  0  0
    2.4829   -1.7905    0.0000 C   0  0  0  0  0  0  0  0  0  0  0  0
    1.6546   -1.7905    0.0000 C   0  0  0  0  0  0  0  0  0  0  0  0
    1.2405   -1.0747    0.0000 C   0  0  0  0  0  0  0  0  0  0  0  0
    1.6546   -0.3588    0.0000 C   0  0  0  0  0  0  0  0  0  0  0  0
    2.4829   -0.3588    0.0000 C   0  0  0  0  0  0  0  0  0  0  0  0
    4.1394   -1.7905    0.0000 C   0  0  0  0  0  0  0  0  0  0  0  0
    3.7252   -2.5063    0.0000 Cl  0  0  0  0  0  0  0  0  0  0  0  0
    4.9676   -1.7905    0.0000 C   0  0  0  0  0  0  0  0  0  0  0  0
    7.4492    1.0739    0.0000 C   0  0  0  0  0  0  0  0  0  0  0  0
    7.8627    0.3577    0.0000 C   0  0  0  0  0  0  0  0  0  0  0  0
    8.6897    0.3577    0.0000 C   0  0  0  0  0  0  0  0  0  0  0  0
    9.1032    1.0739    0.0000 C   0  0  0  0  0  0  0  0  0  0  0  0
    8.6897    1.7901    0.0000 C   0  0  0  0  0  0  0  0  0  0  0  0
    7.8627    1.7901    0.0000 C   0  0  0  0  0  0  0  0  0  0  0  0
  2  3  1  0
  3  4  1  0
  4  5  1  0
  5  6  1  0
  6  7  2  0
  7  8  1  0
  8 20  1  0
  8  9  2  0
  9 10  1  0
 10 11  2  0
 11 12  1  0
 12 17  1  0
 12 13  1  0
 13 14  1  0
 14 15  1  0
 15 16  1  0
 16 17  1  0
 11 18  1  0
 18 19  1  0
 18 20  2  0
  4 21  1  0
 21 26  1  0
 21 22  1  0
 22 23  1  0
 23 24  1  0
 24 25  1  0
 25 26  1  0
M  END
>  <SMILES>  (85) 
CCN(C/C=C\c1ccc(C2CCCCC2)c(Cl)c1)C1CCCCC1.Cl

>  <CollectionName>  (85) 
emolecules

>  <LOG PLASMA PROTEIN BINDING (RAT) (% unbound)>  (85) 
-0.266802734893

>  <Internal ID>  (85) 
Mol85

>  <Source>  (85) 
Biogen

$$$$
317503340
     RDKit          2D

 43 48  0  0  1  0  0  0  0  0999 V2000
    9.9465    5.9193    0.0000 N   0  0  0  0  0  0  0  0  0  0  0  0
    9.1382    5.7441    0.0000 C   0  0  0  0  0  0  0  0  0  0  0  0
    8.8858    4.9566    0.0000 C   0  0  0  0  0  0  0  0  0  0  0  0
    8.0776    4.7814    0.0000 N   0  0  0  0  0  0  0  0  0  0  0  0
    7.8252    3.9938    0.0000 C   0  0  0  0  0  0  0  0  0  0  0  0
    7.0169    3.8187    0.0000 C   0  0  0  0  0  0  0  0  0  0  0  0
    6.4611    4.4310    0.0000 N   0  0  0  0  0  0  0  0  0  0  0  0
    5.6529    4.2559    0.0000 C   0  0  0  0  0  0  0  0  0  0  0  0
    5.4005    3.4683    0.0000 C   0  0  0  0  0  0  0  0  0  0  0  0
    4.5922    3.2931    0.0000 C   0  0  0  0  0  0  0  0  0  0  0  0
    4.3398    2.5056    0.0000 C   0  0  0  0  0  0  0  0  0  0  0  0
    4.8956    1.8932    0.0000 O   0  0  0  0  0  0  0  0  0  0  0  0
    3.5316    2.3304    0.0000 N   0  0  0  0  0  0  0  0  0  0  0  0
    2.9758    2.9428    0.0000 C   0  0  0  0  0  0  0  0  0  0  0  0
    2.1675    2.7676    0.0000 C   0  0  0  0  0  0  0  0  0  0  0  0
    1.9151    1.9801    0.0000 C   0  0  0  0  0  0  0  0  0  0  0  0
    2.4709    1.3677    0.0000 C   0  0  0  0  0  0  0  0  0  0  0  0
    3.2792    1.5429    0.0000 C   0  0  0  0  0  0  0  0  0  0  0  0
    2.2185    0.5802    0.0000 N   0  0  0  0  0  0  0  0  0  0  0  0
    2.7096   -0.0883    0.0000 N   0  0  0  0  0  0  0  0  0  0  0  0
    2.2185   -0.7568    0.0000 C   0  0  0  0  0  0  0  0  0  0  0  0
    2.4709   -1.5444    0.0000 C   0  0  0  0  0  0  0  0  0  0  0  0
    1.9151   -2.1567    0.0000 C   0  0  0  0  0  0  0  0  0  0  0  0
    2.1675   -2.9443    0.0000 C   0  0  0  0  0  0  0  0  0  0  0  0
    2.9758   -3.1195    0.0000 C   0  0  0  0  0  0  0  0  0  0  0  0
    3.2282   -3.9070    0.0000 O   0  0  0  0  0  0  0  0  0  0  0  0
    2.6724   -4.5194    0.0000 C   0  0  0  0  0  0  0  0  0  0  0  0
    1.8641   -4.3442    0.0000 C   0  0  0  0  0  0  0  0  0  0  0  0
    1.3083   -4.9566    0.0000 C   0  0  0  0  0  0  0  0  0  0  0  0
    1.5607   -5.7441    0.0000 C   0  0  0  0  0  0  0  0  0  0  0  0
    2.3690   -5.9193    0.0000 C   0  0  0  0  0  0  0  0  0  0  0  0
    2.9248   -5.3069    0.0000 C   0  0  0  0  0  0  0  0  0  0  0  0
    3.5316   -2.5071    0.0000 C   0  0  0  0  0  0  0  0  0  0  0  0
    3.2792   -1.7196    0.0000 C   0  0  0  0  0  0  0  0  0  0  0  0
    1.4317   -0.5025    0.0000 C   0  0  0  0  0  0  0  0  0  0  0  0
    0.7158   -0.9166    0.0000 C   0  0  0  0  0  0  0  0  0  0  0  0
    0.7158   -1.7436    0.0000 N   0  0  0  0  0  0  0  0  0  0  0  0
    0.0000   -0.5025    0.0000 N   0  0  0  0  0  0  0  0  0  0  0  0
    0.0000    0.3258    0.0000 C   0  0  0  0  0  0  0  0  0  0  0  0
    0.7158    0.7399    0.0000 N   0  0  0  0  0  0  0  0  0  0  0  0
    1.4317    0.3258    0.0000 C   0  0  0  0  0  0  0  0  0  0  0  0
    6.7135    5.2186    0.0000 C   0  0  0  0  0  0  0  0  0  0  0  0
    7.5218    5.3937    0.0000 C   0  0  0  0  0  0  0  0  0  0  0  0
  1  2  1  0
  2  3  1  0
  3  4  1  0
  4 43  1  0
  4  5  1  0
  5  6  1  0
  6  7  1  0
  7  8  1  0
  8  9  1  0
  9 10  2  0
 10 11  1  0
 11 12  2  0
 11 13  1  0
 13 18  1  0
 13 14  1  0
 14 15  1  0
 15 16  1  0
 16 17  1  0
 17 18  1  0
 17 19  1  6
 19 41  1  0
 19 20  1  0
 20 21  2  0
 21 22  1  0
 22 34  1  0
 22 23  2  0
 23 24  1  0
 24 25  2  0
 25 26  1  0
 26 27  1  0
 27 32  1  0
 27 28  2  0
 28 29  1  0
 29 30  2  0
 30 31  1  0
 31 32  2  0
 25 33  1  0
 33 34  2  0
 21 35  1  0
 35 41  2  0
 35 36  1  0
 36 37  1  0
 36 38  2  0
 38 39  1  0
 39 40  2  0
 40 41  1  0
  7 42  1  0
 42 43  1  0
M  END
>  <SMILES>  (86) 
NCCN1CCN(C/C=C/C(=O)N2CCC[C@@H](n3nc(-c4ccc(Oc5ccccc5)cc4)c4c(N)ncnc43)C2)CC1

>  <CollectionName>  (86) 
emolecules

>  <LOG PLASMA PROTEIN BINDING (RAT) (% unbound)>  (86) 
0.686814954507

>  <Internal ID>  (86) 
Mol86

>  <Source>  (86) 
Biogen

$$$$
44507855
     RDKit          2D

 22 26  0  0  0  0  0  0  0  0999 V2000
    4.6192   -2.2100    0.0000 C   0  0  0  0  0  0  0  0  0  0  0  0
    4.3668   -1.4224    0.0000 N   0  0  0  0  0  0  0  0  0  0  0  0
    3.5799   -1.1680    0.0000 C   0  0  0  0  0  0  0  0  0  0  0  0
    2.8641   -1.5822    0.0000 C   0  0  0  0  0  0  0  0  0  0  0  0
    2.1482   -1.1680    0.0000 C   0  0  0  0  0  0  0  0  0  0  0  0
    2.1482   -0.3398    0.0000 N   0  0  0  0  0  0  0  0  0  0  0  0
    2.8641    0.0743    0.0000 C   0  0  0  0  0  0  0  0  0  0  0  0
    3.5799   -0.3398    0.0000 C   0  0  0  0  0  0  0  0  0  0  0  0
    4.3668   -0.0854    0.0000 N   0  0  0  0  0  0  0  0  0  0  0  0
    4.8578   -0.7539    0.0000 C   0  0  0  0  0  0  0  0  0  0  0  0
    5.6848   -0.7539    0.0000 C   0  0  0  0  0  0  0  0  0  0  0  0
    6.4010   -0.3404    0.0000 C   0  0  0  0  0  0  0  0  0  0  0  0
    6.4010   -1.1674    0.0000 C   0  0  0  0  0  0  0  0  0  0  0  0
    1.4324    0.0743    0.0000 C   0  0  0  0  0  0  0  0  0  0  0  0
    0.7158   -0.3385    0.0000 N   0  0  0  0  0  0  0  0  0  0  0  0
    0.0000    0.0756    0.0000 C   0  0  0  0  0  0  0  0  0  0  0  0
    0.0007    0.9026    0.0000 N   0  0  0  0  0  0  0  0  0  0  0  0
    0.7173    1.3155    0.0000 C   0  0  0  0  0  0  0  0  0  0  0  0
    0.8899    2.1242    0.0000 C   0  0  0  0  0  0  0  0  0  0  0  0
    1.7125    2.2100    0.0000 C   0  0  0  0  0  0  0  0  0  0  0  0
    2.0482    1.4542    0.0000 S   0  0  0  0  0  0  0  0  0  0  0  0
    1.4331    0.9013    0.0000 C   0  0  0  0  0  0  0  0  0  0  0  0
  1  2  1  0
  2 10  1  0
  2  3  1  0
  3  8  2  0
  3  4  1  0
  4  5  1  0
  5  6  1  0
  6  7  1  0
  7  8  1  0
  8  9  1  0
  9 10  2  0
 10 11  1  0
 11 13  1  0
 11 12  1  0
 12 13  1  0
  6 14  1  0
 14 22  1  0
 14 15  2  0
 15 16  1  0
 16 17  2  0
 17 18  1  0
 18 22  2  0
 18 19  1  0
 19 20  2  0
 20 21  1  0
 21 22  1  0
M  END
>  <SMILES>  (87) 
Cn1c(C2CC2)nc2c1CCN(c1ncnc3ccsc13)C2

>  <CollectionName>  (87) 
emolecules

>  <LOG PLASMA PROTEIN BINDING (RAT) (% unbound)>  (87) 
1.19298537909

>  <Internal ID>  (87) 
Mol87

>  <Source>  (87) 
Biogen

$$$$
LN00198968
     RDKit          2D

 28 30  0  0  0  0  0  0  0  0999 V2000
    7.1620   -1.0338    0.0000 C   0  0  0  0  0  0  0  0  0  0  0  0
    7.1620   -0.2068    0.0000 C   0  0  0  0  0  0  0  0  0  0  0  0
    6.4458    0.2068    0.0000 C   0  0  0  0  0  0  0  0  0  0  0  0
    5.7296   -0.2068    0.0000 C   0  0  0  0  0  0  0  0  0  0  0  0
    5.7296   -1.0338    0.0000 C   0  0  0  0  0  0  0  0  0  0  0  0
    5.0134   -1.4473    0.0000 C   0  0  0  0  0  0  0  0  0  0  0  0
    5.0134   -2.2743    0.0000 C   0  0  0  0  0  0  0  0  0  0  0  0
    5.7296   -2.6878    0.0000 C   0  0  0  0  0  0  0  0  0  0  0  0
    6.4458   -2.2743    0.0000 C   0  0  0  0  0  0  0  0  0  0  0  0
    6.4458   -1.4473    0.0000 C   0  0  0  0  0  0  0  0  0  0  0  0
    5.0134    0.2068    0.0000 C   0  0  0  0  0  0  0  0  0  0  0  0
    5.0134    1.0338    0.0000 C   0  0  0  0  0  0  0  0  0  0  0  0
    4.2972    1.4473    0.0000 C   0  0  0  0  0  0  0  0  0  0  0  0
    3.5810    1.0338    0.0000 C   0  0  0  0  0  0  0  0  0  0  0  0
    2.8648    1.4473    0.0000 O   0  0  0  0  0  0  0  0  0  0  0  0
    2.1486    1.0338    0.0000 C   0  0  0  0  0  0  0  0  0  0  0  0
    1.4324    1.4472    0.0000 C   0  0  0  0  0  0  0  0  0  0  0  0
    0.7162    1.0337    0.0000 N   0  0  0  0  0  0  0  0  0  0  0  0
    0.0000    1.4473    0.0000 C   0  0  0  0  0  0  0  0  0  0  0  0
    0.7162    0.2068    0.0000 C   0  0  0  0  0  0  0  0  0  0  0  0
    3.5810    0.2068    0.0000 C   0  0  0  0  0  0  0  0  0  0  0  0
    4.2972   -0.2068    0.0000 C   0  0  0  0  0  0  0  0  0  0  0  0
    6.4458    1.0338    0.0000 C   0  0  0  0  0  0  0  0  0  0  0  0
    7.1620    1.4473    0.0000 C   0  0  0  0  0  0  0  0  0  0  0  0
    7.1620    2.2743    0.0000 C   0  0  0  0  0  0  0  0  0  0  0  0
    6.4458    2.6878    0.0000 C   0  0  0  0  0  0  0  0  0  0  0  0
    5.7296    2.2743    0.0000 C   0  0  0  0  0  0  0  0  0  0  0  0
    5.7296    1.4473    0.0000 C   0  0  0  0  0  0  0  0  0  0  0  0
  1  2  1  0
  2  3  1  0
  3  4  2  0
  4  5  1  0
  5 10  1  0
  5  6  2  0
  6  7  1  0
  7  8  2  0
  8  9  1  0
  9 10  2  0
  4 11  1  0
 11 22  1  0
 11 12  2  0
 12 13  1  0
 13 14  2  0
 14 15  1  0
 15 16  1  0
 16 17  1  0
 17 18  1  0
 18 19  1  0
 18 20  1  0
 14 21  1  0
 21 22  2  0
  3 23  1  0
 23 28  1  0
 23 24  2  0
 24 25  1  0
 25 26  2  0
 26 27  1  0
 27 28  2  0
M  END
>  <SMILES>  (88) 
CC/C(=C(\c1ccccc1)c1ccc(OCCN(C)C)cc1)c1ccccc1

>  <CollectionName>  (88) 
labnetworkBB

>  <LOG PLASMA PROTEIN BINDING (RAT) (% unbound)>  (88) 
-0.341988603343

>  <Internal ID>  (88) 
Mol88

>  <Source>  (88) 
Biogen

$$$$
319760048
     RDKit          2D

 21 23  0  0  0  0  0  0  0  0999 V2000
    2.9698   -1.6751    0.0000 C   0  0  0  0  0  0  0  0  0  0  0  0
    2.3552   -1.1217    0.0000 O   0  0  0  0  0  0  0  0  0  0  0  0
    1.5687   -1.3773    0.0000 C   0  0  0  0  0  0  0  0  0  0  0  0
    1.3131   -2.1638    0.0000 N   0  0  0  0  0  0  0  0  0  0  0  0
    0.4861   -2.1638    0.0000 N   0  0  0  0  0  0  0  0  0  0  0  0
    0.0000   -2.8328    0.0000 C   0  0  0  0  0  0  0  0  0  0  0  0
    0.2305   -1.3773    0.0000 C   0  0  0  0  0  0  0  0  0  0  0  0
    0.8996   -0.8912    0.0000 C   0  0  0  0  0  0  0  0  0  0  0  0
    0.8996   -0.0642    0.0000 C   0  0  0  0  0  0  0  0  0  0  0  0
    0.1834    0.3493    0.0000 O   0  0  0  0  0  0  0  0  0  0  0  0
    1.6158    0.3493    0.0000 N   0  0  0  0  0  0  0  0  0  0  0  0
    1.6158    1.1763    0.0000 C   0  0  0  0  0  0  0  0  0  0  0  0
    0.9000    1.5905    0.0000 C   0  0  0  0  0  0  0  0  0  0  0  0
    0.9000    2.4187    0.0000 C   0  0  0  0  0  0  0  0  0  0  0  0
    1.6158    2.8328    0.0000 C   0  0  0  0  0  0  0  0  0  0  0  0
    2.3316    2.4187    0.0000 C   0  0  0  0  0  0  0  0  0  0  0  0
    3.0534    2.8328    0.0000 C   0  0  0  0  0  0  0  0  0  0  0  0
    3.7692    2.4187    0.0000 N   0  0  0  0  0  0  0  0  0  0  0  0
    3.7692    1.5905    0.0000 C   0  0  0  0  0  0  0  0  0  0  0  0
    3.0534    1.1763    0.0000 C   0  0  0  0  0  0  0  0  0  0  0  0
    2.3316    1.5905    0.0000 C   0  0  0  0  0  0  0  0  0  0  0  0
  1  2  1  0
  2  3  1  0
  3  8  1  0
  3  4  2  0
  4  5  1  0
  5  6  1  0
  5  7  1  0
  7  8  2  0
  8  9  1  0
  9 10  2  0
  9 11  1  0
 11 12  1  0
 12 21  1  0
 12 13  2  0
 13 14  1  0
 14 15  2  0
 15 16  1  0
 16 21  2  0
 16 17  1  0
 17 18  2  0
 18 19  1  0
 19 20  2  0
 20 21  1  0
M  END
>  <SMILES>  (89) 
COc1nn(C)cc1C(=O)Nc1cccc2cnccc12

>  <CollectionName>  (89) 
emolecules

>  <LOG PLASMA PROTEIN BINDING (RAT) (% unbound)>  (89) 
1.58945809046

>  <Internal ID>  (89) 
Mol89

>  <Source>  (89) 
Biogen

$$$$
393556
     RDKit          2D

 30 33  0  0  0  0  0  0  0  0999 V2000
    6.8769    3.1730    0.0000 C   0  0  0  0  0  0  0  0  0  0  0  0
    6.5406    2.4175    0.0000 N   0  0  0  0  0  0  0  0  0  0  0  0
    5.7181    2.3310    0.0000 C   0  0  0  0  0  0  0  0  0  0  0  0
    5.2320    3.0001    0.0000 O   0  0  0  0  0  0  0  0  0  0  0  0
    5.3817    1.5755    0.0000 C   0  0  0  0  0  0  0  0  0  0  0  0
    4.9682    2.2917    0.0000 C   0  0  0  0  0  0  0  0  0  0  0  0
    4.1412    2.2917    0.0000 C   0  0  0  0  0  0  0  0  0  0  0  0
    3.7271    1.5759    0.0000 C   0  0  0  0  0  0  0  0  0  0  0  0
    2.8989    1.5759    0.0000 C   0  0  0  0  0  0  0  0  0  0  0  0
    2.4847    2.2917    0.0000 C   0  0  0  0  0  0  0  0  0  0  0  0
    2.8989    3.0076    0.0000 C   0  0  0  0  0  0  0  0  0  0  0  0
    3.7271    3.0076    0.0000 C   0  0  0  0  0  0  0  0  0  0  0  0
    1.6565    2.2917    0.0000 C   0  0  0  0  0  0  0  0  0  0  0  0
    1.2424    1.5759    0.0000 C   0  0  0  0  0  0  0  0  0  0  0  0
    0.4141    1.5759    0.0000 C   0  0  0  0  0  0  0  0  0  0  0  0
    0.0000    2.2917    0.0000 N   0  0  0  0  0  0  0  0  0  0  0  0
    0.4141    3.0076    0.0000 C   0  0  0  0  0  0  0  0  0  0  0  0
    1.2424    3.0076    0.0000 C   0  0  0  0  0  0  0  0  0  0  0  0
    6.2042    1.4891    0.0000 C   0  0  0  0  0  0  0  0  0  0  0  0
    6.3762    0.6801    0.0000 C   0  0  0  0  0  0  0  0  0  0  0  0
    5.6599    0.2666    0.0000 N   0  0  0  0  0  0  0  0  0  0  0  0
    5.5735   -0.5558    0.0000 C   0  0  0  0  0  0  0  0  0  0  0  0
    6.2426   -1.0419    0.0000 C   0  0  0  0  0  0  0  0  0  0  0  0
    6.9981   -0.7056    0.0000 C   0  0  0  0  0  0  0  0  0  0  0  0
    7.6671   -1.1917    0.0000 C   0  0  0  0  0  0  0  0  0  0  0  0
    7.5807   -2.0141    0.0000 C   0  0  0  0  0  0  0  0  0  0  0  0
    6.8252   -2.3505    0.0000 C   0  0  0  0  0  0  0  0  0  0  0  0
    6.7387   -3.1730    0.0000 F   0  0  0  0  0  0  0  0  0  0  0  0
    6.1561   -1.8644    0.0000 C   0  0  0  0  0  0  0  0  0  0  0  0
    5.0454    0.8200    0.0000 C   0  0  0  0  0  0  0  0  0  0  0  0
  1  2  1  0
  2  3  1  0
  3  4  2  0
  3  5  1  0
  5 30  1  0
  5  6  1  0
  6  7  1  0
  7 12  1  0
  7  8  2  0
  8  9  1  0
  9 10  2  0
 10 11  1  0
 11 12  2  0
 10 13  1  0
 13 18  1  0
 13 14  2  0
 14 15  1  0
 15 16  2  0
 16 17  1  0
 17 18  2  0
  5 19  1  0
 19 20  1  0
 20 21  1  0
 21 22  1  0
 22 23  1  0
 23 29  1  0
 23 24  2  0
 24 25  1  0
 25 26  2  0
 26 27  1  0
 27 28  1  0
 27 29  2  0
 21 30  1  0
M  END
>  <SMILES>  (90) 
CNC(=O)C1(Cc2ccc(-c3ccncc3)cc2)CCN(Cc2cccc(F)c2)C1

>  <CollectionName>  (90) 
emolecules

>  <LOG PLASMA PROTEIN BINDING (RAT) (% unbound)>  (90) 
0.715167357848

>  <Internal ID>  (90) 
Mol90

>  <Source>  (90) 
Biogen

$$$$
42902190
     RDKit          2D

 24 27  0  0  0  0  0  0  0  0999 V2000
    0.0000   -0.7008    0.0000 C   0  0  0  0  0  0  0  0  0  0  0  0
    0.7166   -0.2879    0.0000 C   0  0  0  0  0  0  0  0  0  0  0  0
    0.7173    0.5391    0.0000 C   0  0  0  0  0  0  0  0  0  0  0  0
    1.4338    0.9520    0.0000 N   0  0  0  0  0  0  0  0  0  0  0  0
    1.4346    1.7790    0.0000 C   0  0  0  0  0  0  0  0  0  0  0  0
    2.1511    2.1919    0.0000 C   0  0  0  0  0  0  0  0  0  0  0  0
    2.2383    3.0143    0.0000 C   0  0  0  0  0  0  0  0  0  0  0  0
    3.0474    3.1855    0.0000 N   0  0  0  0  0  0  0  0  0  0  0  0
    3.4602    2.4689    0.0000 C   0  0  0  0  0  0  0  0  0  0  0  0
    4.2826    2.3818    0.0000 C   0  0  0  0  0  0  0  0  0  0  0  0
    2.9063    1.8548    0.0000 S   0  0  0  0  0  0  0  0  0  0  0  0
    2.1497    0.5379    0.0000 C   0  0  0  0  0  0  0  0  0  0  0  0
    2.1490   -0.2891    0.0000 C   0  0  0  0  0  0  0  0  0  0  0  0
    1.4324   -0.7020    0.0000 C   0  0  0  0  0  0  0  0  0  0  0  0
    1.4317   -1.5290    0.0000 N   0  0  0  0  0  0  0  0  0  0  0  0
    2.1475   -1.9431    0.0000 C   0  0  0  0  0  0  0  0  0  0  0  0
    2.1475   -2.7714    0.0000 C   0  0  0  0  0  0  0  0  0  0  0  0
    2.8634   -3.1855    0.0000 C   0  0  0  0  0  0  0  0  0  0  0  0
    3.5792   -2.7714    0.0000 C   0  0  0  0  0  0  0  0  0  0  0  0
    4.3660   -3.0258    0.0000 N   0  0  0  0  0  0  0  0  0  0  0  0
    4.8571   -2.3573    0.0000 N   0  0  0  0  0  0  0  0  0  0  0  0
    4.3660   -1.6887    0.0000 N   0  0  0  0  0  0  0  0  0  0  0  0
    3.5792   -1.9431    0.0000 N   0  0  0  0  0  0  0  0  0  0  0  0
    2.8634   -1.5290    0.0000 N   0  0  0  0  0  0  0  0  0  0  0  0
  1  2  1  0
  2 14  1  0
  2  3  1  0
  3  4  1  0
  4  5  1  0
  5  6  1  0
  6 11  1  0
  6  7  2  0
  7  8  1  0
  8  9  2  0
  9 10  1  0
  9 11  1  0
  4 12  1  0
 12 13  1  0
 13 14  1  0
 14 15  1  0
 15 16  1  0
 16 24  2  0
 16 17  1  0
 17 18  2  0
 18 19  1  0
 19 23  1  0
 19 20  2  0
 20 21  1  0
 21 22  2  0
 22 23  1  0
 23 24  1  0
M  END
>  <SMILES>  (91) 
Cc1ncc(CN2CCC(Nc3ccc4nnnn4n3)C(C)C2)s1

>  <CollectionName>  (91) 
emolecules

>  <LOG PLASMA PROTEIN BINDING (RAT) (% unbound)>  (91) 
1.57915455716

>  <Internal ID>  (91) 
Mol91

>  <Source>  (91) 
Biogen

$$$$
210343
     RDKit          2D

 23 26  0  0  0  0  0  0  0  0999 V2000
    4.5939    2.3599    0.0000 C   0  0  0  0  0  0  0  0  0  0  0  0
    4.5939    1.5329    0.0000 C   0  0  0  0  0  0  0  0  0  0  0  0
    5.3101    1.1194    0.0000 N   0  0  0  0  0  0  0  0  0  0  0  0
    5.3101    0.2924    0.0000 C   0  0  0  0  0  0  0  0  0  0  0  0
    6.0263   -0.1211    0.0000 N   0  0  0  0  0  0  0  0  0  0  0  0
    6.0263   -0.9481    0.0000 C   0  0  0  0  0  0  0  0  0  0  0  0
    6.6953   -1.4342    0.0000 N   0  0  0  0  0  0  0  0  0  0  0  0
    6.4398   -2.2207    0.0000 C   0  0  0  0  0  0  0  0  0  0  0  0
    5.6128   -2.2207    0.0000 C   0  0  0  0  0  0  0  0  0  0  0  0
    5.3572   -1.4342    0.0000 S   0  0  0  0  0  0  0  0  0  0  0  0
    4.5939   -0.1211    0.0000 C   0  0  0  0  0  0  0  0  0  0  0  0
    3.8777    0.2924    0.0000 C   0  0  0  0  0  0  0  0  0  0  0  0
    3.8777    1.1194    0.0000 N   0  0  0  0  0  0  0  0  0  0  0  0
    3.1615   -0.1211    0.0000 C   0  0  0  0  0  0  0  0  0  0  0  0
    2.9474   -0.9199    0.0000 C   0  0  0  0  0  0  0  0  0  0  0  0
    2.1486   -0.7059    0.0000 N   0  0  0  0  0  0  0  0  0  0  0  0
    2.3627    0.0929    0.0000 C   0  0  0  0  0  0  0  0  0  0  0  0
    1.4324   -1.1194    0.0000 C   0  0  0  0  0  0  0  0  0  0  0  0
    1.4324   -1.9464    0.0000 N   0  0  0  0  0  0  0  0  0  0  0  0
    0.7162   -2.3599    0.0000 C   0  0  0  0  0  0  0  0  0  0  0  0
    0.0000   -1.9464    0.0000 C   0  0  0  0  0  0  0  0  0  0  0  0
    0.0000   -1.1194    0.0000 C   0  0  0  0  0  0  0  0  0  0  0  0
    0.7162   -0.7059    0.0000 N   0  0  0  0  0  0  0  0  0  0  0  0
  1  2  1  0
  2 13  2  0
  2  3  1  0
  3  4  2  0
  4  5  1  0
  5  6  1  0
  6 10  1  0
  6  7  2  0
  7  8  1  0
  8  9  2  0
  9 10  1  0
  4 11  1  0
 11 12  2  0
 12 13  1  0
 12 14  1  0
 14 17  1  0
 14 15  1  0
 15 16  1  0
 16 17  1  0
 16 18  1  0
 18 23  1  0
 18 19  2  0
 19 20  1  0
 20 21  2  0
 21 22  1  0
 22 23  2  0
M  END
>  <SMILES>  (92) 
Cc1nc(Nc2nccs2)cc(C2CN(c3ncccn3)C2)n1

>  <CollectionName>  (92) 
emolecules

>  <LOG PLASMA PROTEIN BINDING (RAT) (% unbound)>  (92) 
0.374565060723

>  <Internal ID>  (92) 
Mol92

>  <Source>  (92) 
Biogen

$$$$
32538596
     RDKit          2D

 26 28  0  0  0  0  0  0  0  0999 V2000
    7.1815   -1.6348    0.0000 C   0  0  0  0  0  0  0  0  0  0  0  0
    6.4683   -2.0534    0.0000 O   0  0  0  0  0  0  0  0  0  0  0  0
    5.7492   -1.6450    0.0000 C   0  0  0  0  0  0  0  0  0  0  0  0
    5.7433   -0.8180    0.0000 C   0  0  0  0  0  0  0  0  0  0  0  0
    5.0241   -0.4097    0.0000 C   0  0  0  0  0  0  0  0  0  0  0  0
    4.3109   -0.8283    0.0000 C   0  0  0  0  0  0  0  0  0  0  0  0
    3.5918   -0.4199    0.0000 N   0  0  0  0  0  0  0  0  0  0  0  0
    3.5859    0.4071    0.0000 C   0  0  0  0  0  0  0  0  0  0  0  0
    4.3017    0.8212    0.0000 C   0  0  0  0  0  0  0  0  0  0  0  0
    4.3017    1.6495    0.0000 C   0  0  0  0  0  0  0  0  0  0  0  0
    3.5859    2.0636    0.0000 N   0  0  0  0  0  0  0  0  0  0  0  0
    2.8641    1.6495    0.0000 C   0  0  0  0  0  0  0  0  0  0  0  0
    2.1482    2.0636    0.0000 C   0  0  0  0  0  0  0  0  0  0  0  0
    1.4324    1.6495    0.0000 C   0  0  0  0  0  0  0  0  0  0  0  0
    0.7166    2.0636    0.0000 O   0  0  0  0  0  0  0  0  0  0  0  0
    0.7173    2.8906    0.0000 C   0  0  0  0  0  0  0  0  0  0  0  0
    1.4324    0.8212    0.0000 C   0  0  0  0  0  0  0  0  0  0  0  0
    0.7166    0.4071    0.0000 O   0  0  0  0  0  0  0  0  0  0  0  0
    0.0000    0.8200    0.0000 C   0  0  0  0  0  0  0  0  0  0  0  0
    2.1482    0.4071    0.0000 C   0  0  0  0  0  0  0  0  0  0  0  0
    2.8641    0.8212    0.0000 C   0  0  0  0  0  0  0  0  0  0  0  0
    5.0175    0.4071    0.0000 C   0  0  0  0  0  0  0  0  0  0  0  0
    5.7334   -0.0070    0.0000 N   0  0  0  0  0  0  0  0  0  0  0  0
    4.3168   -1.6552    0.0000 C   0  0  0  0  0  0  0  0  0  0  0  0
    5.0359   -2.0636    0.0000 C   0  0  0  0  0  0  0  0  0  0  0  0
    5.0419   -2.8906    0.0000 Cl  0  0  0  0  0  0  0  0  0  0  0  0
  1  2  1  0
  2  3  1  0
  3 25  2  0
  3  4  1  0
  4  5  2  0
  5  6  1  0
  6  7  1  0
  7  8  1  0
  8 21  1  0
  8  9  2  0
  9 10  1  0
 10 11  2  0
 11 12  1  0
 12 21  2  0
 12 13  1  0
 13 14  2  0
 14 15  1  0
 15 16  1  0
 14 17  1  0
 17 18  1  0
 18 19  1  0
 17 20  2  0
 20 21  1  0
  9 22  1  0
 22 23  3  0
  6 24  2  0
 24 25  1  0
 25 26  1  0
M  END
>  <SMILES>  (93) 
COc1ccc(Nc2c(C#N)cnc3cc(OC)c(OC)cc23)cc1Cl

>  <CollectionName>  (93) 
emolecules

>  <LOG PLASMA PROTEIN BINDING (RAT) (% unbound)>  (93) 
0.115943176939

>  <Internal ID>  (93) 
Mol93

>  <Source>  (93) 
Biogen

$$$$
50614392
     RDKit          2D

 25 27  0  0  0  0  0  0  0  0999 V2000
   -3.8052    6.4286    0.0000 C   0  0  0  0  0  0  0  0  0  0  0  0
   -3.3917    5.7124    0.0000 O   0  0  0  0  0  0  0  0  0  0  0  0
   -2.5647    5.7124    0.0000 C   0  0  0  0  0  0  0  0  0  0  0  0
   -2.1512    6.4286    0.0000 C   0  0  0  0  0  0  0  0  0  0  0  0
   -1.3242    6.4286    0.0000 C   0  0  0  0  0  0  0  0  0  0  0  0
   -0.9107    5.7124    0.0000 C   0  0  0  0  0  0  0  0  0  0  0  0
   -0.0837    5.7124    0.0000 C   0  0  0  0  0  0  0  0  0  0  0  0
    0.3298    4.9962    0.0000 C   0  0  0  0  0  0  0  0  0  0  0  0
    1.1568    4.9962    0.0000 C   0  0  0  0  0  0  0  0  0  0  0  0
    1.5703    4.2800    0.0000 N   0  0  0  0  0  0  0  0  0  0  0  0
    2.3973    4.2800    0.0000 C   0  0  0  0  0  0  0  0  0  0  0  0
    2.8108    3.5637    0.0000 C   0  0  0  0  0  0  0  0  0  0  0  0
    2.3973    2.8475    0.0000 N   0  0  0  0  0  0  0  0  0  0  0  0
    2.8108    2.1313    0.0000 C   0  0  0  0  0  0  0  0  0  0  0  0
    3.6333    2.0449    0.0000 C   0  0  0  0  0  0  0  0  0  0  0  0
    3.8052    1.2360    0.0000 N   0  0  0  0  0  0  0  0  0  0  0  0
    3.0890    0.8225    0.0000 N   0  0  0  0  0  0  0  0  0  0  0  0
    3.0026   -0.0000    0.0000 C   0  0  0  0  0  0  0  0  0  0  0  0
    2.4744    1.3758    0.0000 C   0  0  0  0  0  0  0  0  0  0  0  0
    1.5703    2.8475    0.0000 C   0  0  0  0  0  0  0  0  0  0  0  0
    1.1568    2.1313    0.0000 O   0  0  0  0  0  0  0  0  0  0  0  0
    1.1568    3.5637    0.0000 C   0  0  0  0  0  0  0  0  0  0  0  0
   -1.3242    4.9962    0.0000 C   0  0  0  0  0  0  0  0  0  0  0  0
   -2.1512    4.9962    0.0000 C   0  0  0  0  0  0  0  0  0  0  0  0
   -2.5647    4.2800    0.0000 F   0  0  0  0  0  0  0  0  0  0  0  0
  1  2  1  0
  2  3  1  0
  3 24  2  0
  3  4  1  0
  4  5  2  0
  5  6  1  0
  6  7  1  0
  7  8  1  0
  8  9  1  0
  9 10  1  0
 10 22  1  0
 10 11  1  0
 11 12  1  0
 12 13  1  0
 13 14  1  0
 14 19  2  0
 14 15  1  0
 15 16  2  0
 16 17  1  0
 17 18  1  0
 17 19  1  0
 13 20  1  0
 20 21  2  0
 20 22  1  0
  6 23  2  0
 23 24  1  0
 24 25  1  0
M  END
>  <SMILES>  (94) 
COc1ccc(CCCN2CCN(c3cnn(C)c3)C(=O)C2)cc1F

>  <CollectionName>  (94) 
emolecules

>  <LOG PLASMA PROTEIN BINDING (RAT) (% unbound)>  (94) 
1.3084149991

>  <Internal ID>  (94) 
Mol94

>  <Source>  (94) 
Biogen

$$$$
36933671
     RDKit          2D

 24 26  0  0  0  0  0  0  0  0999 V2000
    5.7540    2.4661    0.0000 C   0  0  0  0  0  0  0  0  0  0  0  0
    5.2000    1.8520    0.0000 C   0  0  0  0  0  0  0  0  0  0  0  0
    4.3913    2.0246    0.0000 C   0  0  0  0  0  0  0  0  0  0  0  0
    5.4549    1.0652    0.0000 C   0  0  0  0  0  0  0  0  0  0  0  0
    6.2412    0.8090    0.0000 O   0  0  0  0  0  0  0  0  0  0  0  0
    6.2405   -0.0180    0.0000 N   0  0  0  0  0  0  0  0  0  0  0  0
    5.4538   -0.2729    0.0000 C   0  0  0  0  0  0  0  0  0  0  0  0
    5.1975   -1.0592    0.0000 C   0  0  0  0  0  0  0  0  0  0  0  0
    4.9682    0.3966    0.0000 C   0  0  0  0  0  0  0  0  0  0  0  0
    4.1412    0.3973    0.0000 C   0  0  0  0  0  0  0  0  0  0  0  0
    3.7284    1.1139    0.0000 O   0  0  0  0  0  0  0  0  0  0  0  0
    3.7271   -0.3185    0.0000 N   0  0  0  0  0  0  0  0  0  0  0  0
    4.1412   -1.0344    0.0000 C   0  0  0  0  0  0  0  0  0  0  0  0
    3.7271   -1.7502    0.0000 C   0  0  0  0  0  0  0  0  0  0  0  0
    4.1412   -2.4661    0.0000 C   0  0  0  0  0  0  0  0  0  0  0  0
    2.8989   -1.7502    0.0000 O   0  0  0  0  0  0  0  0  0  0  0  0
    2.4847   -1.0344    0.0000 C   0  0  0  0  0  0  0  0  0  0  0  0
    2.8989   -0.3185    0.0000 C   0  0  0  0  0  0  0  0  0  0  0  0
    1.6565   -1.0344    0.0000 C   0  0  0  0  0  0  0  0  0  0  0  0
    1.2424   -1.7502    0.0000 C   0  0  0  0  0  0  0  0  0  0  0  0
    0.4141   -1.7502    0.0000 C   0  0  0  0  0  0  0  0  0  0  0  0
    0.0000   -1.0344    0.0000 C   0  0  0  0  0  0  0  0  0  0  0  0
    0.4141   -0.3185    0.0000 C   0  0  0  0  0  0  0  0  0  0  0  0
    1.2424   -0.3185    0.0000 C   0  0  0  0  0  0  0  0  0  0  0  0
  1  2  1  0
  2  3  1  0
  2  4  1  0
  4  9  2  0
  4  5  1  0
  5  6  1  0
  6  7  2  0
  7  8  1  0
  7  9  1  0
  9 10  1  0
 10 11  2  0
 10 12  1  0
 12 18  1  0
 12 13  1  0
 13 14  1  0
 14 15  1  0
 14 16  1  0
 16 17  1  0
 17 18  1  0
 17 19  1  0
 19 24  1  0
 19 20  2  0
 20 21  1  0
 21 22  2  0
 22 23  1  0
 23 24  2  0
M  END
>  <SMILES>  (95) 
Cc1noc(C(C)C)c1C(=O)N1CC(C)OC(c2ccccc2)C1

>  <CollectionName>  (95) 
emolecules

>  <LOG PLASMA PROTEIN BINDING (RAT) (% unbound)>  (95) 
1.11193427633

>  <Internal ID>  (95) 
Mol95

>  <Source>  (95) 
Biogen

$$$$
31246617
     RDKit          2D

 28 31  0  0  0  0  0  0  0  0999 V2000
    3.4198    2.3121    0.0000 C   0  0  0  0  0  0  0  0  0  0  0  0
    3.4198    1.4851    0.0000 N   0  0  0  0  0  0  0  0  0  0  0  0
    4.1360    1.0716    0.0000 C   0  0  0  0  0  0  0  0  0  0  0  0
    4.8522    1.4851    0.0000 C   0  0  0  0  0  0  0  0  0  0  0  0
    4.8522    2.3121    0.0000 C   0  0  0  0  0  0  0  0  0  0  0  0
    5.5685    2.7256    0.0000 C   0  0  0  0  0  0  0  0  0  0  0  0
    6.2847    2.3121    0.0000 C   0  0  0  0  0  0  0  0  0  0  0  0
    6.2847    1.4851    0.0000 C   0  0  0  0  0  0  0  0  0  0  0  0
    5.5684    1.0716    0.0000 C   0  0  0  0  0  0  0  0  0  0  0  0
    2.7036    1.0716    0.0000 C   0  0  0  0  0  0  0  0  0  0  0  0
    2.2185    0.4031    0.0000 C   0  0  0  0  0  0  0  0  0  0  0  0
    1.4317    0.6575    0.0000 C   0  0  0  0  0  0  0  0  0  0  0  0
    0.7158    0.2434    0.0000 C   0  0  0  0  0  0  0  0  0  0  0  0
    0.0000    0.6575    0.0000 C   0  0  0  0  0  0  0  0  0  0  0  0
    0.0000    1.4858    0.0000 C   0  0  0  0  0  0  0  0  0  0  0  0
    0.7158    1.8999    0.0000 C   0  0  0  0  0  0  0  0  0  0  0  0
    1.4317    1.4858    0.0000 C   0  0  0  0  0  0  0  0  0  0  0  0
    2.2185    1.7401    0.0000 C   0  0  0  0  0  0  0  0  0  0  0  0
    3.4198    0.6581    0.0000 C   0  0  0  0  0  0  0  0  0  0  0  0
    3.9928    0.9889    0.0000 O   0  0  0  0  0  0  0  0  0  0  0  0
    3.4198   -0.1689    0.0000 N   0  0  0  0  0  0  0  0  0  0  0  0
    4.1649   -0.5277    0.0000 C   0  0  0  0  0  0  0  0  0  0  0  0
    4.3490   -1.3340    0.0000 C   0  0  0  0  0  0  0  0  0  0  0  0
    3.8333   -1.9805    0.0000 N   0  0  0  0  0  0  0  0  0  0  0  0
    3.0063   -1.9805    0.0000 C   0  0  0  0  0  0  0  0  0  0  0  0
    2.6475   -2.7256    0.0000 O   0  0  0  0  0  0  0  0  0  0  0  0
    2.4907   -1.3340    0.0000 C   0  0  0  0  0  0  0  0  0  0  0  0
    2.6747   -0.5277    0.0000 C   0  0  0  0  0  0  0  0  0  0  0  0
  1  2  1  0
  2  3  1  0
  3  4  1  0
  4  9  1  0
  4  5  2  0
  5  6  1  0
  6  7  2  0
  7  8  1  0
  8  9  2  0
  2 10  1  0
 10 18  1  0
 10 11  1  0
 11 12  1  0
 12 17  2  0
 12 13  1  0
 13 14  2  0
 14 15  1  0
 15 16  2  0
 16 17  1  0
 17 18  1  0
 10 19  1  0
 19 20  2  0
 19 21  1  0
 21 28  1  0
 21 22  1  0
 22 23  1  0
 23 24  1  0
 24 25  1  0
 25 26  2  0
 25 27  1  0
 27 28  1  0
M  END
>  <SMILES>  (96) 
CN(Cc1ccccc1)C1(C(=O)N2CCNC(=O)CC2)Cc2ccccc2C1

>  <CollectionName>  (96) 
emolecules

>  <LOG PLASMA PROTEIN BINDING (RAT) (% unbound)>  (96) 
0.912806392661

>  <Internal ID>  (96) 
Mol96

>  <Source>  (96) 
Biogen

$$$$
43278877
     RDKit          2D

 31 34  0  0  1  0  0  0  0  0999 V2000
    5.9966    1.2328    0.0000 C   0  0  0  0  0  0  0  0  0  0  0  0
    5.9966    0.4058    0.0000 C   0  0  0  0  0  0  0  0  0  0  0  0
    6.7128   -0.0077    0.0000 C   0  0  0  0  0  0  0  0  0  0  0  0
    7.4290    0.4058    0.0000 F   0  0  0  0  0  0  0  0  0  0  0  0
    6.7128   -0.8347    0.0000 C   0  0  0  0  0  0  0  0  0  0  0  0
    5.9966   -1.2482    0.0000 C   0  0  0  0  0  0  0  0  0  0  0  0
    5.2804   -0.8347    0.0000 C   0  0  0  0  0  0  0  0  0  0  0  0
    5.2804   -0.0077    0.0000 C   0  0  0  0  0  0  0  0  0  0  0  0
    4.5642    0.4058    0.0000 N   0  0  0  0  0  0  0  0  0  0  0  0
    3.8480   -0.0077    0.0000 C   0  0  0  0  0  0  0  0  0  0  0  0
    3.8480   -0.8347    0.0000 O   0  0  0  0  0  0  0  0  0  0  0  0
    3.1318    0.4058    0.0000 C   0  0  0  0  0  0  0  0  0  0  0  0
    2.4156   -0.0077    0.0000 N   0  0  0  0  0  0  0  0  0  0  0  0
    1.6601    0.3287    0.0000 C   0  0  0  0  0  0  0  0  0  0  0  0
    1.9157    1.1152    0.0000 C   0  0  0  0  0  0  0  0  0  0  0  0
    1.3623    1.7298    0.0000 C   0  0  0  0  0  0  0  0  0  0  0  0
    0.5534    1.5579    0.0000 C   0  0  0  0  0  0  0  0  0  0  0  0
    0.0000    2.1724    0.0000 C   0  0  0  0  0  0  0  0  0  0  0  0
    0.2556    2.9590    0.0000 C   0  0  0  0  0  0  0  0  0  0  0  0
    1.0645    3.1309    0.0000 C   0  0  0  0  0  0  0  0  0  0  0  0
    1.6179    2.5163    0.0000 C   0  0  0  0  0  0  0  0  0  0  0  0
    1.1067   -0.2859    0.0000 C   0  0  0  0  0  0  0  0  0  0  0  0
    1.5202   -1.0021    0.0000 C   0  0  0  0  0  0  0  0  0  0  0  0
    0.7113   -1.1740    0.0000 C   0  0  0  0  0  0  0  0  0  0  0  0
    1.1503   -1.7417    0.0000 N   0  0  0  0  0  0  0  0  0  0  0  0
    1.4979   -2.4921    0.0000 C   0  0  0  0  0  0  0  0  0  0  0  0
    0.9727   -3.1309    0.0000 O   0  0  0  0  0  0  0  0  0  0  0  0
    2.3014   -2.6882    0.0000 C   0  0  0  0  0  0  0  0  0  0  0  0
    2.9556   -2.1823    0.0000 C   0  0  0  0  0  0  0  0  0  0  0  0
    2.9680   -1.3554    0.0000 C   0  0  0  0  0  0  0  0  0  0  0  0
    2.3292   -0.8301    0.0000 C   0  0  0  0  0  0  0  0  0  0  0  0
  1  2  1  0
  2  8  2  0
  2  3  1  0
  3  4  1  0
  3  5  2  0
  5  6  1  0
  6  7  2  0
  7  8  1  0
  8  9  1  0
  9 10  1  0
 10 11  2  0
 10 12  1  0
 12 13  1  0
 13 31  1  0
 13 14  1  0
 14 15  1  1
 15 16  1  0
 16 21  1  0
 16 17  2  0
 17 18  1  0
 18 19  2  0
 19 20  1  0
 20 21  2  0
 14 22  1  0
 22 23  1  0
 23 31  1  0
 23 24  1  6
 23 25  1  0
 25 26  1  0
 26 27  2  0
 26 28  1  0
 28 29  1  0
 29 30  1  0
 31 30  1  1
M  END
>  <SMILES>  (97) 
Cc1c(F)cccc1NC(=O)CN1[C@H](Cc2ccccc2)C[C@]2(C)NC(=O)CCC[C@H]12

>  <CollectionName>  (97) 
emolecules

>  <LOG PLASMA PROTEIN BINDING (RAT) (% unbound)>  (97) 
0.9253120915

>  <Internal ID>  (97) 
Mol97

>  <Source>  (97) 
Biogen

$$$$
901943
     RDKit          2D

 34 36  0  0  1  0  0  0  0  0999 V2000
   -6.6105    4.4955    0.0000 C   0  0  0  0  0  0  0  0  0  0  0  0
   -6.1970    3.7793    0.0000 C   0  0  0  0  0  0  0  0  0  0  0  0
   -5.3700    3.7793    0.0000 C   0  0  0  0  0  0  0  0  0  0  0  0
   -4.8839    4.4483    0.0000 C   0  0  0  0  0  0  0  0  0  0  0  0
   -5.1395    5.2349    0.0000 C   0  0  0  0  0  0  0  0  0  0  0  0
   -4.0974    4.1928    0.0000 C   0  0  0  0  0  0  0  0  0  0  0  0
   -4.0974    3.3658    0.0000 N   0  0  0  0  0  0  0  0  0  0  0  0
   -3.4283    2.8797    0.0000 C   0  0  0  0  0  0  0  0  0  0  0  0
   -3.5148    2.0572    0.0000 O   0  0  0  0  0  0  0  0  0  0  0  0
   -2.6728    3.2160    0.0000 N   0  0  0  0  0  0  0  0  0  0  0  0
   -2.0038    2.7299    0.0000 C   0  0  0  0  0  0  0  0  0  0  0  0
   -1.2483    3.0663    0.0000 C   0  0  0  0  0  0  0  0  0  0  0  0
   -0.5792    2.5802    0.0000 C   0  0  0  0  0  0  0  0  0  0  0  0
   -0.6657    1.7577    0.0000 C   0  0  0  0  0  0  0  0  0  0  0  0
    0.0034    1.2716    0.0000 C   0  0  0  0  0  0  0  0  0  0  0  0
    0.7589    1.6080    0.0000 C   0  0  0  0  0  0  0  0  0  0  0  0
    0.8453    2.4305    0.0000 C   0  0  0  0  0  0  0  0  0  0  0  0
    0.1763    2.9166    0.0000 C   0  0  0  0  0  0  0  0  0  0  0  0
    1.4279    1.1219    0.0000 S   0  0  0  0  0  0  0  0  0  0  0  0
    0.9418    0.4529    0.0000 O   0  0  0  0  0  0  0  0  0  0  0  0
    1.9140    1.7910    0.0000 O   0  0  0  0  0  0  0  0  0  0  0  0
    2.0970    0.6358    0.0000 N   0  0  0  0  0  0  0  0  0  0  0  0
    2.8525    0.9722    0.0000 C   0  0  0  0  0  0  0  0  0  0  0  0
    2.9389    1.7947    0.0000 O   0  0  0  0  0  0  0  0  0  0  0  0
    3.5216    0.4861    0.0000 N   0  0  0  0  0  0  0  0  0  0  0  0
    4.2771    0.8225    0.0000 C   0  0  0  0  0  0  0  0  0  0  0  0
    4.9461    0.3364    0.0000 C   0  0  0  0  0  0  0  0  0  0  0  0
    5.7016    0.6727    0.0000 C   0  0  0  0  0  0  0  0  0  0  0  0
    5.7881    1.4952    0.0000 C   0  0  0  0  0  0  0  0  0  0  0  0
    6.6105    1.4088    0.0000 C   0  0  0  0  0  0  0  0  0  0  0  0
    5.1190    1.9813    0.0000 C   0  0  0  0  0  0  0  0  0  0  0  0
    4.3635    1.6449    0.0000 C   0  0  0  0  0  0  0  0  0  0  0  0
   -4.8839    3.1102    0.0000 C   0  0  0  0  0  0  0  0  0  0  0  0
   -5.1395    2.3237    0.0000 O   0  0  0  0  0  0  0  0  0  0  0  0
  1  2  1  0
  2  3  1  0
  3 33  1  0
  3  4  2  0
  4  5  1  0
  4  6  1  0
  6  7  1  0
  7  8  1  0
  8  9  2  0
  8 10  1  0
 10 11  1  0
 11 12  1  0
 12 13  1  0
 13 18  1  0
 13 14  2  0
 14 15  1  0
 15 16  2  0
 16 17  1  0
 17 18  2  0
 16 19  1  0
 19 20  2  0
 19 21  2  0
 19 22  1  0
 22 23  1  0
 23 24  2  0
 23 25  1  0
 26 25  1  6
 26 32  1  0
 26 27  1  0
 27 28  1  0
 28 29  1  0
 29 30  1  1
 29 31  1  0
 31 32  1  0
  7 33  1  0
 33 34  2  0
M  END
>  <SMILES>  (98) 
CCC1=C(C)CN(C(=O)NCCc2ccc(S(=O)(=O)NC(=O)N[C@H]3CC[C@H](C)CC3)cc2)C1=O

>  <CollectionName>  (98) 
emolecules

>  <LOG PLASMA PROTEIN BINDING (RAT) (% unbound)>  (98) 
-1.63827216398

>  <Internal ID>  (98) 
Mol98

>  <Source>  (98) 
Biogen

$$$$
300011391
     RDKit          2D

 21 23  0  0  0  0  0  0  0  0999 V2000
    2.3726    2.9746    0.0000 O   0  0  0  0  0  0  0  0  0  0  0  0
    2.3667    2.1476    0.0000 C   0  0  0  0  0  0  0  0  0  0  0  0
    3.0826    1.7335    0.0000 N   0  0  0  0  0  0  0  0  0  0  0  0
    3.0826    0.9052    0.0000 C   0  0  0  0  0  0  0  0  0  0  0  0
    2.3667    0.4911    0.0000 C   0  0  0  0  0  0  0  0  0  0  0  0
    1.6450    0.9052    0.0000 C   0  0  0  0  0  0  0  0  0  0  0  0
    0.9291    0.4911    0.0000 C   0  0  0  0  0  0  0  0  0  0  0  0
    0.2133    0.9052    0.0000 C   0  0  0  0  0  0  0  0  0  0  0  0
    0.2133    1.7335    0.0000 C   0  0  0  0  0  0  0  0  0  0  0  0
    0.9291    2.1476    0.0000 C   0  0  0  0  0  0  0  0  0  0  0  0
    1.6450    1.7335    0.0000 C   0  0  0  0  0  0  0  0  0  0  0  0
    0.9291   -0.3359    0.0000 S   0  0  0  0  0  0  0  0  0  0  0  0
    0.1021   -0.3359    0.0000 O   0  0  0  0  0  0  0  0  0  0  0  0
    1.7561   -0.3359    0.0000 O   0  0  0  0  0  0  0  0  0  0  0  0
    0.9291   -1.1629    0.0000 N   0  0  0  0  0  0  0  0  0  0  0  0
    1.6742   -1.5217    0.0000 C   0  0  0  0  0  0  0  0  0  0  0  0
    1.8583   -2.3280    0.0000 C   0  0  0  0  0  0  0  0  0  0  0  0
    1.3426   -2.9746    0.0000 C   0  0  0  0  0  0  0  0  0  0  0  0
    0.5156   -2.9746    0.0000 N   0  0  0  0  0  0  0  0  0  0  0  0
    0.0000   -2.3280    0.0000 C   0  0  0  0  0  0  0  0  0  0  0  0
    0.1840   -1.5217    0.0000 C   0  0  0  0  0  0  0  0  0  0  0  0
  1  2  1  0
  2 11  2  0
  2  3  1  0
  3  4  2  0
  4  5  1  0
  5  6  2  0
  6 11  1  0
  6  7  1  0
  7  8  2  0
  8  9  1  0
  9 10  2  0
 10 11  1  0
  7 12  1  0
 12 13  2  0
 12 14  2  0
 12 15  1  0
 15 21  1  0
 15 16  1  0
 16 17  1  0
 17 18  1  0
 18 19  1  0
 19 20  1  0
 20 21  1  0
M  END
>  <SMILES>  (99) 
O=S(=O)(c1cccc2c(O)nccc12)N1CCCNCC1

>  <CollectionName>  (99) 
emolecules

>  <LOG PLASMA PROTEIN BINDING (RAT) (% unbound)>  (99) 
1.99081374341

>  <Internal ID>  (99) 
Mol99

>  <Source>  (99) 
Biogen

$$$$
43280049
     RDKit          2D

 31 34  0  0  1  0  0  0  0  0999 V2000
   -4.1580    1.4324    0.0000 C   0  0  0  0  0  0  0  0  0  0  0  0
   -3.3310    1.4324    0.0000 C   0  0  0  0  0  0  0  0  0  0  0  0
   -2.9175    2.1486    0.0000 C   0  0  0  0  0  0  0  0  0  0  0  0
   -2.0905    2.1486    0.0000 C   0  0  0  0  0  0  0  0  0  0  0  0
   -1.6770    1.4324    0.0000 C   0  0  0  0  0  0  0  0  0  0  0  0
   -0.8500    1.4324    0.0000 N   0  0  0  0  0  0  0  0  0  0  0  0
   -0.4365    2.1486    0.0000 C   0  0  0  0  0  0  0  0  0  0  0  0
   -0.8500    2.8648    0.0000 O   0  0  0  0  0  0  0  0  0  0  0  0
    0.3905    2.1486    0.0000 C   0  0  0  0  0  0  0  0  0  0  0  0
    0.8040    2.8648    0.0000 N   0  0  0  0  0  0  0  0  0  0  0  0
    1.6265    2.9513    0.0000 C   0  0  0  0  0  0  0  0  0  0  0  0
    1.7984    2.1423    0.0000 C   0  0  0  0  0  0  0  0  0  0  0  0
    2.5849    1.8868    0.0000 C   0  0  0  0  0  0  0  0  0  0  0  0
    2.7569    1.0778    0.0000 C   0  0  0  0  0  0  0  0  0  0  0  0
    3.5434    0.8223    0.0000 C   0  0  0  0  0  0  0  0  0  0  0  0
    4.1580    1.3757    0.0000 C   0  0  0  0  0  0  0  0  0  0  0  0
    3.9860    2.1846    0.0000 C   0  0  0  0  0  0  0  0  0  0  0  0
    3.1995    2.4401    0.0000 C   0  0  0  0  0  0  0  0  0  0  0  0
    1.7984    3.7602    0.0000 C   0  0  0  0  0  0  0  0  0  0  0  0
    1.0822    4.1737    0.0000 C   0  0  0  0  0  0  0  0  0  0  0  0
    1.6968    4.7271    0.0000 C   0  0  0  0  0  0  0  0  0  0  0  0
    1.0328    4.9992    0.0000 N   0  0  0  0  0  0  0  0  0  0  0  0
    0.3565    5.4752    0.0000 C   0  0  0  0  0  0  0  0  0  0  0  0
    0.4920    6.2911    0.0000 O   0  0  0  0  0  0  0  0  0  0  0  0
   -0.4373    5.2433    0.0000 C   0  0  0  0  0  0  0  0  0  0  0  0
   -0.7509    4.4781    0.0000 C   0  0  0  0  0  0  0  0  0  0  0  0
   -0.3482    3.7558    0.0000 C   0  0  0  0  0  0  0  0  0  0  0  0
    0.4676    3.6203    0.0000 C   0  0  0  0  0  0  0  0  0  0  0  0
   -2.0905    0.7162    0.0000 C   0  0  0  0  0  0  0  0  0  0  0  0
   -2.9175    0.7162    0.0000 C   0  0  0  0  0  0  0  0  0  0  0  0
   -3.3310    0.0000    0.0000 F   0  0  0  0  0  0  0  0  0  0  0  0
  1  2  1  0
  2 30  2  0
  2  3  1  0
  3  4  2  0
  4  5  1  0
  5  6  1  0
  6  7  1  0
  7  8  2  0
  7  9  1  0
  9 10  1  0
 10 28  1  0
 10 11  1  0
 11 12  1  1
 12 13  1  0
 13 18  1  0
 13 14  2  0
 14 15  1  0
 15 16  2  0
 16 17  1  0
 17 18  2  0
 11 19  1  0
 19 20  1  0
 20 28  1  0
 20 21  1  6
 20 22  1  0
 22 23  1  0
 23 24  2  0
 23 25  1  0
 25 26  1  0
 26 27  1  0
 28 27  1  1
  5 29  2  0
 29 30  1  0
 30 31  1  0
M  END
>  <SMILES>  (100) 
Cc1ccc(NC(=O)CN2[C@H](Cc3ccccc3)C[C@]3(C)NC(=O)CCC[C@H]23)cc1F

>  <CollectionName>  (100) 
emolecules

>  <LOG PLASMA PROTEIN BINDING (RAT) (% unbound)>  (100) 
0.360971883726

>  <Internal ID>  (100) 
Mol100

>  <Source>  (100) 
Biogen

$$$$
139303
     RDKit          2D

 33 36  0  0  0  0  0  0  0  0999 V2000
    0.8295   -1.0705    0.0000 C   0  0  0  0  0  0  0  0  0  0  0  0
    1.6565   -1.0712    0.0000 N   0  0  0  0  0  0  0  0  0  0  0  0
    2.0694   -1.7878    0.0000 C   0  0  0  0  0  0  0  0  0  0  0  0
    2.0706   -0.3554    0.0000 C   0  0  0  0  0  0  0  0  0  0  0  0
    1.6577    0.3612    0.0000 O   0  0  0  0  0  0  0  0  0  0  0  0
    2.8976   -0.3561    0.0000 C   0  0  0  0  0  0  0  0  0  0  0  0
    2.4847    0.3604    0.0000 C   0  0  0  0  0  0  0  0  0  0  0  0
    2.8989    1.0763    0.0000 C   0  0  0  0  0  0  0  0  0  0  0  0
    3.7271    1.0763    0.0000 C   0  0  0  0  0  0  0  0  0  0  0  0
    4.1412    1.7921    0.0000 C   0  0  0  0  0  0  0  0  0  0  0  0
    3.7271    2.5080    0.0000 C   0  0  0  0  0  0  0  0  0  0  0  0
    2.8989    2.5080    0.0000 C   0  0  0  0  0  0  0  0  0  0  0  0
    2.4847    1.7921    0.0000 C   0  0  0  0  0  0  0  0  0  0  0  0
    1.6565    1.7921    0.0000 C   0  0  0  0  0  0  0  0  0  0  0  0
    1.2424    1.0763    0.0000 C   0  0  0  0  0  0  0  0  0  0  0  0
    0.4141    1.0763    0.0000 C   0  0  0  0  0  0  0  0  0  0  0  0
    0.0000    1.7921    0.0000 C   0  0  0  0  0  0  0  0  0  0  0  0
    0.4141    2.5080    0.0000 C   0  0  0  0  0  0  0  0  0  0  0  0
    0.0000    3.2238    0.0000 F   0  0  0  0  0  0  0  0  0  0  0  0
    1.2424    2.5080    0.0000 C   0  0  0  0  0  0  0  0  0  0  0  0
    2.4835   -1.0720    0.0000 C   0  0  0  0  0  0  0  0  0  0  0  0
    2.8964   -1.7885    0.0000 C   0  0  0  0  0  0  0  0  0  0  0  0
    3.7234   -1.7892    0.0000 N   0  0  0  0  0  0  0  0  0  0  0  0
    4.1375   -1.0734    0.0000 C   0  0  0  0  0  0  0  0  0  0  0  0
    3.7246   -0.3568    0.0000 C   0  0  0  0  0  0  0  0  0  0  0  0
    4.1362   -2.5058    0.0000 C   0  0  0  0  0  0  0  0  0  0  0  0
    3.7221   -3.2217    0.0000 O   0  0  0  0  0  0  0  0  0  0  0  0
    4.9632   -2.5065    0.0000 C   0  0  0  0  0  0  0  0  0  0  0  0
    5.3761   -3.2231    0.0000 C   0  0  0  0  0  0  0  0  0  0  0  0
    6.2031   -3.2238    0.0000 C   0  0  0  0  0  0  0  0  0  0  0  0
    6.6172   -2.5080    0.0000 C   0  0  0  0  0  0  0  0  0  0  0  0
    6.2044   -1.7914    0.0000 C   0  0  0  0  0  0  0  0  0  0  0  0
    5.3774   -1.7907    0.0000 C   0  0  0  0  0  0  0  0  0  0  0  0
  1  2  1  0
  2  3  1  0
  2  4  1  0
  4  5  2  0
  4  6  1  0
  6 25  1  0
  6  7  1  0
  7  8  1  0
  8 13  1  0
  8  9  2  0
  9 10  1  0
 10 11  2  0
 11 12  1  0
 12 13  2  0
 13 14  1  0
 14 20  1  0
 14 15  2  0
 15 16  1  0
 16 17  2  0
 17 18  1  0
 18 19  1  0
 18 20  2  0
  6 21  1  0
 21 22  1  0
 22 23  1  0
 23 24  1  0
 24 25  1  0
 23 26  1  0
 26 27  2  0
 26 28  1  0
 28 33  1  0
 28 29  1  0
 29 30  1  0
 30 31  1  0
 31 32  2  0
 32 33  1  0
M  END
>  <SMILES>  (101) 
CN(C)C(=O)C1(Cc2ccccc2-c2cccc(F)c2)CCN(C(=O)C2CC=CCC2)CC1

>  <CollectionName>  (101) 
emolecules

>  <LOG PLASMA PROTEIN BINDING (RAT) (% unbound)>  (101) 
0.142702245738

>  <Internal ID>  (101) 
Mol101

>  <Source>  (101) 
Biogen

$$$$
139341
     RDKit          2D

 31 33  0  0  0  0  0  0  0  0999 V2000
    6.2031   -3.2238    0.0000 C   0  0  0  0  0  0  0  0  0  0  0  0
    5.3761   -3.2231    0.0000 O   0  0  0  0  0  0  0  0  0  0  0  0
    4.9632   -2.5065    0.0000 C   0  0  0  0  0  0  0  0  0  0  0  0
    4.1362   -2.5058    0.0000 C   0  0  0  0  0  0  0  0  0  0  0  0
    3.7221   -3.2216    0.0000 O   0  0  0  0  0  0  0  0  0  0  0  0
    3.7234   -1.7892    0.0000 N   0  0  0  0  0  0  0  0  0  0  0  0
    4.1375   -1.0734    0.0000 C   0  0  0  0  0  0  0  0  0  0  0  0
    3.7246   -0.3568    0.0000 C   0  0  0  0  0  0  0  0  0  0  0  0
    2.8976   -0.3561    0.0000 C   0  0  0  0  0  0  0  0  0  0  0  0
    2.4847    0.3604    0.0000 C   0  0  0  0  0  0  0  0  0  0  0  0
    2.8989    1.0763    0.0000 C   0  0  0  0  0  0  0  0  0  0  0  0
    3.7271    1.0763    0.0000 C   0  0  0  0  0  0  0  0  0  0  0  0
    4.1412    1.7921    0.0000 C   0  0  0  0  0  0  0  0  0  0  0  0
    3.7271    2.5080    0.0000 C   0  0  0  0  0  0  0  0  0  0  0  0
    2.8989    2.5080    0.0000 C   0  0  0  0  0  0  0  0  0  0  0  0
    2.4847    1.7921    0.0000 C   0  0  0  0  0  0  0  0  0  0  0  0
    1.6565    1.7921    0.0000 C   0  0  0  0  0  0  0  0  0  0  0  0
    1.2424    1.0763    0.0000 C   0  0  0  0  0  0  0  0  0  0  0  0
    0.4141    1.0763    0.0000 C   0  0  0  0  0  0  0  0  0  0  0  0
    0.0000    1.7921    0.0000 C   0  0  0  0  0  0  0  0  0  0  0  0
    0.4141    2.5080    0.0000 C   0  0  0  0  0  0  0  0  0  0  0  0
    0.0000    3.2238    0.0000 F   0  0  0  0  0  0  0  0  0  0  0  0
    1.2424    2.5080    0.0000 C   0  0  0  0  0  0  0  0  0  0  0  0
    2.4835   -1.0720    0.0000 C   0  0  0  0  0  0  0  0  0  0  0  0
    2.8964   -1.7885    0.0000 C   0  0  0  0  0  0  0  0  0  0  0  0
    2.0706   -0.3554    0.0000 C   0  0  0  0  0  0  0  0  0  0  0  0
    1.6577    0.3612    0.0000 O   0  0  0  0  0  0  0  0  0  0  0  0
    1.6565   -1.0712    0.0000 N   0  0  0  0  0  0  0  0  0  0  0  0
    0.8295   -1.0705    0.0000 C   0  0  0  0  0  0  0  0  0  0  0  0
    0.4154   -1.7864    0.0000 C   0  0  0  0  0  0  0  0  0  0  0  0
    0.4166   -0.3540    0.0000 C   0  0  0  0  0  0  0  0  0  0  0  0
  1  2  1  0
  2  3  1  0
  3  4  1  0
  4  5  2  0
  4  6  1  0
  6 25  1  0
  6  7  1  0
  7  8  1  0
  8  9  1  0
  9 10  1  0
 10 11  1  0
 11 16  1  0
 11 12  2  0
 12 13  1  0
 13 14  2  0
 14 15  1  0
 15 16  2  0
 16 17  1  0
 17 23  1  0
 17 18  2  0
 18 19  1  0
 19 20  2  0
 20 21  1  0
 21 22  1  0
 21 23  2  0
  9 24  1  0
 24 25  1  0
  9 26  1  0
 26 27  2  0
 26 28  1  0
 28 29  1  0
 29 30  1  0
 29 31  1  0
M  END
>  <SMILES>  (102) 
COCC(=O)N1CCC(Cc2ccccc2-c2cccc(F)c2)(C(=O)NC(C)C)CC1

>  <CollectionName>  (102) 
emolecules

>  <LOG PLASMA PROTEIN BINDING (RAT) (% unbound)>  (102) 
1.0769679522

>  <Internal ID>  (102) 
Mol102

>  <Source>  (102) 
Biogen

$$$$
29261445
     RDKit          2D

 24 26  0  0  0  0  0  0  0  0999 V2000
    6.7334   -2.5627    0.0000 C   0  0  0  0  0  0  0  0  0  0  0  0
    7.1469   -1.8465    0.0000 O   0  0  0  0  0  0  0  0  0  0  0  0
    6.7334   -1.1303    0.0000 C   0  0  0  0  0  0  0  0  0  0  0  0
    5.9064   -1.1303    0.0000 C   0  0  0  0  0  0  0  0  0  0  0  0
    5.4929   -0.4141    0.0000 C   0  0  0  0  0  0  0  0  0  0  0  0
    5.9064    0.3021    0.0000 C   0  0  0  0  0  0  0  0  0  0  0  0
    5.4929    1.0183    0.0000 C   0  0  0  0  0  0  0  0  0  0  0  0
    4.6659    1.0183    0.0000 N   0  0  0  0  0  0  0  0  0  0  0  0
    4.2524    1.7345    0.0000 C   0  0  0  0  0  0  0  0  0  0  0  0
    4.6659    2.4507    0.0000 O   0  0  0  0  0  0  0  0  0  0  0  0
    3.4254    1.7345    0.0000 C   0  0  0  0  0  0  0  0  0  0  0  0
    2.9344    2.4030    0.0000 S   0  0  0  0  0  0  0  0  0  0  0  0
    2.1475    2.1486    0.0000 C   0  0  0  0  0  0  0  0  0  0  0  0
    1.4317    2.5627    0.0000 N   0  0  0  0  0  0  0  0  0  0  0  0
    0.7158    2.1486    0.0000 C   0  0  0  0  0  0  0  0  0  0  0  0
    0.0000    2.5627    0.0000 C   0  0  0  0  0  0  0  0  0  0  0  0
    0.7158    1.3204    0.0000 C   0  0  0  0  0  0  0  0  0  0  0  0
    1.4317    0.9062    0.0000 C   0  0  0  0  0  0  0  0  0  0  0  0
    1.4317    0.0792    0.0000 C   0  0  0  0  0  0  0  0  0  0  0  0
    2.1475    1.3204    0.0000 C   0  0  0  0  0  0  0  0  0  0  0  0
    2.9344    1.0660    0.0000 C   0  0  0  0  0  0  0  0  0  0  0  0
    3.1868    0.2784    0.0000 N   0  0  0  0  0  0  0  0  0  0  0  0
    6.7334    0.3021    0.0000 C   0  0  0  0  0  0  0  0  0  0  0  0
    7.1469   -0.4141    0.0000 C   0  0  0  0  0  0  0  0  0  0  0  0
  1  2  1  0
  2  3  1  0
  3 24  2  0
  3  4  1  0
  4  5  2  0
  5  6  1  0
  6  7  1  0
  7  8  1  0
  8  9  1  0
  9 10  2  0
  9 11  1  0
 11 21  2  0
 11 12  1  0
 12 13  1  0
 13 20  2  0
 13 14  1  0
 14 15  2  0
 15 16  1  0
 15 17  1  0
 17 18  2  0
 18 19  1  0
 18 20  1  0
 20 21  1  0
 21 22  1  0
  6 23  2  0
 23 24  1  0
M  END
>  <SMILES>  (103) 
COc1ccc(CNC(=O)c2sc3nc(C)cc(C)c3c2N)cc1

>  <CollectionName>  (103) 
emolecules

>  <LOG PLASMA PROTEIN BINDING (RAT) (% unbound)>  (103) 
-0.18243463044

>  <Internal ID>  (103) 
Mol103

>  <Source>  (103) 
Biogen

$$$$
324007832
     RDKit          2D

 23 24  0  0  0  0  0  0  0  0999 V2000
    5.9452    1.7802    0.0000 C   0  0  0  0  0  0  0  0  0  0  0  0
    5.5317    1.0640    0.0000 C   0  0  0  0  0  0  0  0  0  0  0  0
    4.7047    1.0640    0.0000 C   0  0  0  0  0  0  0  0  0  0  0  0
    3.8777    1.0640    0.0000 C   0  0  0  0  0  0  0  0  0  0  0  0
    4.7047    0.2370    0.0000 N   0  0  0  0  0  0  0  0  0  0  0  0
    3.9885   -0.1765    0.0000 C   0  0  0  0  0  0  0  0  0  0  0  0
    3.2723    0.2370    0.0000 O   0  0  0  0  0  0  0  0  0  0  0  0
    3.9885   -1.0035    0.0000 C   0  0  0  0  0  0  0  0  0  0  0  0
    4.7047   -1.4170    0.0000 C   0  0  0  0  0  0  0  0  0  0  0  0
    4.7047   -2.2440    0.0000 C   0  0  0  0  0  0  0  0  0  0  0  0
    5.4209   -2.6575    0.0000 F   0  0  0  0  0  0  0  0  0  0  0  0
    3.9885   -2.6575    0.0000 C   0  0  0  0  0  0  0  0  0  0  0  0
    3.2723   -2.2440    0.0000 N   0  0  0  0  0  0  0  0  0  0  0  0
    3.2723   -1.4170    0.0000 C   0  0  0  0  0  0  0  0  0  0  0  0
    2.5561   -1.0035    0.0000 N   0  0  0  0  0  0  0  0  0  0  0  0
    1.8399   -1.4170    0.0000 C   0  0  0  0  0  0  0  0  0  0  0  0
    1.6258   -2.2158    0.0000 C   0  0  0  0  0  0  0  0  0  0  0  0
    0.8270   -2.0018    0.0000 C   0  0  0  0  0  0  0  0  0  0  0  0
    0.4135   -2.7180    0.0000 F   0  0  0  0  0  0  0  0  0  0  0  0
    0.0000   -2.0018    0.0000 F   0  0  0  0  0  0  0  0  0  0  0  0
    1.0410   -1.2030    0.0000 C   0  0  0  0  0  0  0  0  0  0  0  0
    4.7047    1.8910    0.0000 C   0  0  0  0  0  0  0  0  0  0  0  0
    4.7047    2.7180    0.0000 C   0  0  0  0  0  0  0  0  0  0  0  0
  1  2  1  0
  2  3  1  0
  3  4  1  0
  3  5  1  0
  5  6  1  0
  6  7  2  0
  6  8  1  0
  8 14  2  0
  8  9  1  0
  9 10  2  0
 10 11  1  0
 10 12  1  0
 12 13  2  0
 13 14  1  0
 14 15  1  0
 15 16  1  0
 16 21  1  0
 16 17  1  0
 17 18  1  0
 18 19  1  0
 18 20  1  0
 18 21  1  0
  3 22  1  0
 22 23  3  0
M  END
>  <SMILES>  (104) 
C#CC(C)(CC)NC(=O)c1cc(F)cnc1NC1CC(F)(F)C1

>  <CollectionName>  (104) 
emolecules

>  <LOG PLASMA PROTEIN BINDING (RAT) (% unbound)>  (104) 
0.850278552518

>  <Internal ID>  (104) 
Mol104

>  <Source>  (104) 
Biogen

$$$$
320364216
     RDKit          2D

 37 42  0  0  0  0  0  0  0  0999 V2000
   12.2733    0.0196    0.0000 C   0  0  0  0  0  0  0  0  0  0  0  0
   11.4509   -0.0675    0.0000 N   0  0  0  0  0  0  0  0  0  0  0  0
   10.8970    0.5466    0.0000 C   0  0  0  0  0  0  0  0  0  0  0  0
   10.1418    0.2096    0.0000 C   0  0  0  0  0  0  0  0  0  0  0  0
    9.4252    0.6224    0.0000 N   0  0  0  0  0  0  0  0  0  0  0  0
    8.7093    0.2083    0.0000 C   0  0  0  0  0  0  0  0  0  0  0  0
    8.7101   -0.6187    0.0000 N   0  0  0  0  0  0  0  0  0  0  0  0
    7.9942   -1.0328    0.0000 C   0  0  0  0  0  0  0  0  0  0  0  0
    7.9949   -1.8598    0.0000 N   0  0  0  0  0  0  0  0  0  0  0  0
    7.2777   -0.6199    0.0000 N   0  0  0  0  0  0  0  0  0  0  0  0
    7.2769    0.2071    0.0000 C   0  0  0  0  0  0  0  0  0  0  0  0
    7.9928    0.6212    0.0000 N   0  0  0  0  0  0  0  0  0  0  0  0
    6.5604    0.6199    0.0000 C   0  0  0  0  0  0  0  0  0  0  0  0
    6.5597    1.4469    0.0000 C   0  0  0  0  0  0  0  0  0  0  0  0
    5.8431    1.8598    0.0000 C   0  0  0  0  0  0  0  0  0  0  0  0
    5.1273    1.4457    0.0000 C   0  0  0  0  0  0  0  0  0  0  0  0
    5.1280    0.6187    0.0000 C   0  0  0  0  0  0  0  0  0  0  0  0
    5.8445    0.2058    0.0000 C   0  0  0  0  0  0  0  0  0  0  0  0
    5.8453   -0.6212    0.0000 C   0  0  0  0  0  0  0  0  0  0  0  0
    6.5618   -1.0341    0.0000 O   0  0  0  0  0  0  0  0  0  0  0  0
    4.4121    0.2046    0.0000 N   0  0  0  0  0  0  0  0  0  0  0  0
    4.4121   -0.6237    0.0000 C   0  0  0  0  0  0  0  0  0  0  0  0
    3.6963   -1.0378    0.0000 C   0  0  0  0  0  0  0  0  0  0  0  0
    2.9745   -0.6237    0.0000 C   0  0  0  0  0  0  0  0  0  0  0  0
    2.2587   -1.0378    0.0000 C   0  0  0  0  0  0  0  0  0  0  0  0
    1.5428   -0.6237    0.0000 C   0  0  0  0  0  0  0  0  0  0  0  0
    1.5428    0.2046    0.0000 C   0  0  0  0  0  0  0  0  0  0  0  0
    2.2587    0.6187    0.0000 C   0  0  0  0  0  0  0  0  0  0  0  0
    2.2587    1.4457    0.0000 F   0  0  0  0  0  0  0  0  0  0  0  0
    2.9745    0.2046    0.0000 C   0  0  0  0  0  0  0  0  0  0  0  0
    3.6963    0.6187    0.0000 C   0  0  0  0  0  0  0  0  0  0  0  0
    3.7022    1.4457    0.0000 O   0  0  0  0  0  0  0  0  0  0  0  0
    0.8270   -1.0378    0.0000 C   0  0  0  0  0  0  0  0  0  0  0  0
    0.0000   -1.0385    0.0000 C   0  0  0  0  0  0  0  0  0  0  0  0
    0.4141   -1.7544    0.0000 C   0  0  0  0  0  0  0  0  0  0  0  0
   10.2289   -0.6128    0.0000 C   0  0  0  0  0  0  0  0  0  0  0  0
   11.0380   -0.7841    0.0000 N   0  0  0  0  0  0  0  0  0  0  0  0
  1  2  1  0
  2 37  1  0
  2  3  1  0
  3  4  2  0
  4  5  1  0
  5  6  1  0
  6 12  1  0
  6  7  2  0
  7  8  1  0
  8  9  1  0
  8 10  2  0
 10 11  1  0
 11 12  2  0
 11 13  1  0
 13 18  1  0
 13 14  2  0
 14 15  1  0
 15 16  2  0
 16 17  1  0
 17 18  2  0
 18 19  1  0
 19 20  1  0
 17 21  1  0
 21 31  1  0
 21 22  1  0
 22 23  2  0
 23 24  1  0
 24 30  2  0
 24 25  1  0
 25 26  2  0
 26 27  1  0
 27 28  2  0
 28 29  1  0
 28 30  1  0
 30 31  1  0
 31 32  2  0
 26 33  1  0
 33 35  1  0
 33 34  1  0
 34 35  1  0
  4 36  1  0
 36 37  2  0
M  END
>  <SMILES>  (105) 
Cn1cc(Nc2nc(N)nc(-c3cccc(-n4ccc5cc(C6CC6)cc(F)c5c4=O)c3CO)n2)cn1

>  <CollectionName>  (105) 
emolecules

>  <LOG PLASMA PROTEIN BINDING (RAT) (% unbound)>  (105) 
0.581038948772

>  <Internal ID>  (105) 
Mol105

>  <Source>  (105) 
Biogen

$$$$
496510
     RDKit          2D

 31 33  0  0  0  0  0  0  0  0999 V2000
   -5.9957    2.2594    0.0000 C   0  0  0  0  0  0  0  0  0  0  0  0
   -5.1687    2.2594    0.0000 C   0  0  0  0  0  0  0  0  0  0  0  0
   -4.7552    2.9756    0.0000 C   0  0  0  0  0  0  0  0  0  0  0  0
   -3.9283    2.9756    0.0000 N   0  0  0  0  0  0  0  0  0  0  0  0
   -3.5148    2.2594    0.0000 C   0  0  0  0  0  0  0  0  0  0  0  0
   -3.9283    1.5432    0.0000 C   0  0  0  0  0  0  0  0  0  0  0  0
   -4.7552    1.5432    0.0000 N   0  0  0  0  0  0  0  0  0  0  0  0
   -2.6878    2.2594    0.0000 C   0  0  0  0  0  0  0  0  0  0  0  0
   -2.2743    2.9756    0.0000 O   0  0  0  0  0  0  0  0  0  0  0  0
   -2.2743    1.5432    0.0000 N   0  0  0  0  0  0  0  0  0  0  0  0
   -1.4473    1.5432    0.0000 C   0  0  0  0  0  0  0  0  0  0  0  0
   -1.0338    0.8270    0.0000 C   0  0  0  0  0  0  0  0  0  0  0  0
   -0.2068    0.8270    0.0000 C   0  0  0  0  0  0  0  0  0  0  0  0
    0.2068    1.5432    0.0000 C   0  0  0  0  0  0  0  0  0  0  0  0
    1.0338    1.5432    0.0000 C   0  0  0  0  0  0  0  0  0  0  0  0
    1.4473    0.8270    0.0000 C   0  0  0  0  0  0  0  0  0  0  0  0
    1.0338    0.1108    0.0000 C   0  0  0  0  0  0  0  0  0  0  0  0
    0.2068    0.1108    0.0000 C   0  0  0  0  0  0  0  0  0  0  0  0
    2.2743    0.8270    0.0000 S   0  0  0  0  0  0  0  0  0  0  0  0
    2.2743   -0.0000    0.0000 O   0  0  0  0  0  0  0  0  0  0  0  0
    2.2743    1.6540    0.0000 O   0  0  0  0  0  0  0  0  0  0  0  0
    3.1012    0.8270    0.0000 N   0  0  0  0  0  0  0  0  0  0  0  0
    3.5148    1.5432    0.0000 C   0  0  0  0  0  0  0  0  0  0  0  0
    3.1012    2.2594    0.0000 O   0  0  0  0  0  0  0  0  0  0  0  0
    4.3418    1.5432    0.0000 N   0  0  0  0  0  0  0  0  0  0  0  0
    4.7552    2.2594    0.0000 C   0  0  0  0  0  0  0  0  0  0  0  0
    4.3418    2.9756    0.0000 C   0  0  0  0  0  0  0  0  0  0  0  0
    4.7552    3.6918    0.0000 C   0  0  0  0  0  0  0  0  0  0  0  0
    5.5823    3.6918    0.0000 C   0  0  0  0  0  0  0  0  0  0  0  0
    5.9957    2.9756    0.0000 C   0  0  0  0  0  0  0  0  0  0  0  0
    5.5823    2.2594    0.0000 C   0  0  0  0  0  0  0  0  0  0  0  0
  1  2  1  0
  2  7  2  0
  2  3  1  0
  3  4  2  0
  4  5  1  0
  5  6  2  0
  6  7  1  0
  5  8  1  0
  8  9  2  0
  8 10  1  0
 10 11  1  0
 11 12  1  0
 12 13  1  0
 13 18  1  0
 13 14  2  0
 14 15  1  0
 15 16  2  0
 16 17  1  0
 17 18  2  0
 16 19  1  0
 19 20  2  0
 19 21  2  0
 19 22  1  0
 22 23  1  0
 23 24  2  0
 23 25  1  0
 25 26  1  0
 26 31  1  0
 26 27  1  0
 27 28  1  0
 28 29  1  0
 29 30  1  0
 30 31  1  0
M  END
>  <SMILES>  (106) 
Cc1cnc(C(=O)NCCc2ccc(S(=O)(=O)NC(=O)NC3CCCCC3)cc2)cn1

>  <CollectionName>  (106) 
emolecules

>  <LOG PLASMA PROTEIN BINDING (RAT) (% unbound)>  (106) 
-0.204119982656

>  <Internal ID>  (106) 
Mol106

>  <Source>  (106) 
Biogen

$$$$
393408
     RDKit          2D

 30 33  0  0  0  0  0  0  0  0999 V2000
    6.8769    2.8366    0.0000 C   0  0  0  0  0  0  0  0  0  0  0  0
    6.5406    2.0811    0.0000 N   0  0  0  0  0  0  0  0  0  0  0  0
    5.7181    1.9946    0.0000 C   0  0  0  0  0  0  0  0  0  0  0  0
    5.2320    2.6637    0.0000 O   0  0  0  0  0  0  0  0  0  0  0  0
    5.3817    1.2391    0.0000 C   0  0  0  0  0  0  0  0  0  0  0  0
    4.9682    1.9553    0.0000 C   0  0  0  0  0  0  0  0  0  0  0  0
    4.1412    1.9553    0.0000 C   0  0  0  0  0  0  0  0  0  0  0  0
    3.7271    2.6712    0.0000 C   0  0  0  0  0  0  0  0  0  0  0  0
    2.8989    2.6712    0.0000 C   0  0  0  0  0  0  0  0  0  0  0  0
    2.4847    1.9553    0.0000 C   0  0  0  0  0  0  0  0  0  0  0  0
    2.8989    1.2395    0.0000 C   0  0  0  0  0  0  0  0  0  0  0  0
    3.7271    1.2395    0.0000 C   0  0  0  0  0  0  0  0  0  0  0  0
    1.6565    1.9553    0.0000 C   0  0  0  0  0  0  0  0  0  0  0  0
    1.2424    1.2395    0.0000 C   0  0  0  0  0  0  0  0  0  0  0  0
    0.4141    1.2395    0.0000 C   0  0  0  0  0  0  0  0  0  0  0  0
    0.0000    1.9553    0.0000 C   0  0  0  0  0  0  0  0  0  0  0  0
    0.4141    2.6712    0.0000 N   0  0  0  0  0  0  0  0  0  0  0  0
    1.2424    2.6712    0.0000 C   0  0  0  0  0  0  0  0  0  0  0  0
    6.2042    1.1527    0.0000 C   0  0  0  0  0  0  0  0  0  0  0  0
    6.3762    0.3438    0.0000 C   0  0  0  0  0  0  0  0  0  0  0  0
    5.6599   -0.0697    0.0000 N   0  0  0  0  0  0  0  0  0  0  0  0
    5.5735   -0.8922    0.0000 C   0  0  0  0  0  0  0  0  0  0  0  0
    6.2426   -1.3783    0.0000 C   0  0  0  0  0  0  0  0  0  0  0  0
    6.9981   -1.0419    0.0000 C   0  0  0  0  0  0  0  0  0  0  0  0
    7.6671   -1.5280    0.0000 C   0  0  0  0  0  0  0  0  0  0  0  0
    7.5807   -2.3505    0.0000 C   0  0  0  0  0  0  0  0  0  0  0  0
    8.2497   -2.8366    0.0000 F   0  0  0  0  0  0  0  0  0  0  0  0
    6.8252   -2.6869    0.0000 C   0  0  0  0  0  0  0  0  0  0  0  0
    6.1561   -2.2008    0.0000 C   0  0  0  0  0  0  0  0  0  0  0  0
    5.0454    0.4836    0.0000 C   0  0  0  0  0  0  0  0  0  0  0  0
  1  2  1  0
  2  3  1  0
  3  4  2  0
  3  5  1  0
  5 30  1  0
  5  6  1  0
  6  7  1  0
  7 12  1  0
  7  8  2  0
  8  9  1  0
  9 10  2  0
 10 11  1  0
 11 12  2  0
 10 13  1  0
 13 18  1  0
 13 14  2  0
 14 15  1  0
 15 16  2  0
 16 17  1  0
 17 18  2  0
  5 19  1  0
 19 20  1  0
 20 21  1  0
 21 22  1  0
 22 23  1  0
 23 29  1  0
 23 24  2  0
 24 25  1  0
 25 26  2  0
 26 27  1  0
 26 28  1  0
 28 29  2  0
 21 30  1  0
M  END
>  <SMILES>  (107) 
CNC(=O)C1(Cc2ccc(-c3cccnc3)cc2)CCN(Cc2ccc(F)cc2)C1

>  <CollectionName>  (107) 
emolecules

>  <LOG PLASMA PROTEIN BINDING (RAT) (% unbound)>  (107) 
0.918868743381

>  <Internal ID>  (107) 
Mol107

>  <Source>  (107) 
Biogen

$$$$
393424
     RDKit          2D

 30 33  0  0  0  0  0  0  0  0999 V2000
    6.8769    3.1730    0.0000 C   0  0  0  0  0  0  0  0  0  0  0  0
    6.5406    2.4175    0.0000 N   0  0  0  0  0  0  0  0  0  0  0  0
    5.7181    2.3310    0.0000 C   0  0  0  0  0  0  0  0  0  0  0  0
    5.2320    3.0001    0.0000 O   0  0  0  0  0  0  0  0  0  0  0  0
    5.3817    1.5755    0.0000 C   0  0  0  0  0  0  0  0  0  0  0  0
    4.9682    2.2917    0.0000 C   0  0  0  0  0  0  0  0  0  0  0  0
    4.1412    2.2917    0.0000 C   0  0  0  0  0  0  0  0  0  0  0  0
    3.7271    1.5759    0.0000 C   0  0  0  0  0  0  0  0  0  0  0  0
    2.8989    1.5759    0.0000 C   0  0  0  0  0  0  0  0  0  0  0  0
    2.4847    2.2917    0.0000 C   0  0  0  0  0  0  0  0  0  0  0  0
    2.8989    3.0076    0.0000 C   0  0  0  0  0  0  0  0  0  0  0  0
    3.7271    3.0076    0.0000 C   0  0  0  0  0  0  0  0  0  0  0  0
    1.6565    2.2917    0.0000 C   0  0  0  0  0  0  0  0  0  0  0  0
    1.2424    1.5759    0.0000 C   0  0  0  0  0  0  0  0  0  0  0  0
    0.4141    1.5759    0.0000 C   0  0  0  0  0  0  0  0  0  0  0  0
    0.0000    2.2917    0.0000 C   0  0  0  0  0  0  0  0  0  0  0  0
    0.4141    3.0076    0.0000 N   0  0  0  0  0  0  0  0  0  0  0  0
    1.2424    3.0076    0.0000 C   0  0  0  0  0  0  0  0  0  0  0  0
    6.2042    1.4891    0.0000 C   0  0  0  0  0  0  0  0  0  0  0  0
    6.3762    0.6801    0.0000 C   0  0  0  0  0  0  0  0  0  0  0  0
    5.6599    0.2666    0.0000 N   0  0  0  0  0  0  0  0  0  0  0  0
    5.5735   -0.5558    0.0000 C   0  0  0  0  0  0  0  0  0  0  0  0
    6.2426   -1.0419    0.0000 C   0  0  0  0  0  0  0  0  0  0  0  0
    6.9981   -0.7056    0.0000 C   0  0  0  0  0  0  0  0  0  0  0  0
    7.6671   -1.1917    0.0000 C   0  0  0  0  0  0  0  0  0  0  0  0
    7.5807   -2.0141    0.0000 C   0  0  0  0  0  0  0  0  0  0  0  0
    6.8252   -2.3505    0.0000 C   0  0  0  0  0  0  0  0  0  0  0  0
    6.7387   -3.1730    0.0000 F   0  0  0  0  0  0  0  0  0  0  0  0
    6.1561   -1.8644    0.0000 C   0  0  0  0  0  0  0  0  0  0  0  0
    5.0454    0.8200    0.0000 C   0  0  0  0  0  0  0  0  0  0  0  0
  1  2  1  0
  2  3  1  0
  3  4  2  0
  3  5  1  0
  5 30  1  0
  5  6  1  0
  6  7  1  0
  7 12  1  0
  7  8  2  0
  8  9  1  0
  9 10  2  0
 10 11  1  0
 11 12  2  0
 10 13  1  0
 13 18  1  0
 13 14  2  0
 14 15  1  0
 15 16  2  0
 16 17  1  0
 17 18  2  0
  5 19  1  0
 19 20  1  0
 20 21  1  0
 21 22  1  0
 22 23  1  0
 23 29  1  0
 23 24  2  0
 24 25  1  0
 25 26  2  0
 26 27  1  0
 27 28  1  0
 27 29  2  0
 21 30  1  0
M  END
>  <SMILES>  (108) 
CNC(=O)C1(Cc2ccc(-c3cccnc3)cc2)CCN(Cc2cccc(F)c2)C1

>  <CollectionName>  (108) 
emolecules

>  <LOG PLASMA PROTEIN BINDING (RAT) (% unbound)>  (108) 
0.53109554687

>  <Internal ID>  (108) 
Mol108

>  <Source>  (108) 
Biogen

$$$$
182435411
     RDKit          2D

 17 18  0  0  0  0  0  0  0  0999 V2000
    0.0216    2.1015    0.0000 C   0  0  0  0  0  0  0  0  0  0  0  0
    0.8486    2.1015    0.0000 C   0  0  0  0  0  0  0  0  0  0  0  0
    1.2621    2.8177    0.0000 C   0  0  0  0  0  0  0  0  0  0  0  0
    2.0891    2.8177    0.0000 C   0  0  0  0  0  0  0  0  0  0  0  0
    2.5026    2.1015    0.0000 C   0  0  0  0  0  0  0  0  0  0  0  0
    2.0891    1.3853    0.0000 C   0  0  0  0  0  0  0  0  0  0  0  0
    1.2621    1.3853    0.0000 N   0  0  0  0  0  0  0  0  0  0  0  0
    0.8486    0.6691    0.0000 C   0  0  0  0  0  0  0  0  0  0  0  0
    0.0216    0.6691    0.0000 C   0  0  0  0  0  0  0  0  0  0  0  0
   -0.4645    0.0000    0.0000 C   0  0  0  0  0  0  0  0  0  0  0  0
   -1.2510    0.2556    0.0000 N   0  0  0  0  0  0  0  0  0  0  0  0
   -1.2510    1.0826    0.0000 C   0  0  0  0  0  0  0  0  0  0  0  0
   -1.9200    1.5687    0.0000 N   0  0  0  0  0  0  0  0  0  0  0  0
   -1.8336    2.3911    0.0000 C   0  0  0  0  0  0  0  0  0  0  0  0
   -2.5026    2.8772    0.0000 C   0  0  0  0  0  0  0  0  0  0  0  0
   -1.0781    2.7275    0.0000 O   0  0  0  0  0  0  0  0  0  0  0  0
   -0.4645    1.3381    0.0000 S   0  0  0  0  0  0  0  0  0  0  0  0
  1  2  1  0
  2  7  1  0
  2  3  1  0
  3  4  1  0
  4  5  1  0
  5  6  1  0
  6  7  1  0
  7  8  1  0
  8  9  1  0
  9 17  1  0
  9 10  2  0
 10 11  1  0
 11 12  2  0
 12 13  1  0
 13 14  1  0
 14 15  1  0
 14 16  2  0
 12 17  1  0
M  END
>  <SMILES>  (109) 
CC(=O)Nc1ncc(CN2CCCCC2C)s1

>  <CollectionName>  (109) 
emolecules

>  <LOG PLASMA PROTEIN BINDING (RAT) (% unbound)>  (109) 
1.92310925242

>  <Internal ID>  (109) 
Mol109

>  <Source>  (109) 
Biogen

$$$$
270775
     RDKit          2D

 32 36  0  0  1  0  0  0  0  0999 V2000
    5.8361   -1.1098    0.0000 F   0  0  0  0  0  0  0  0  0  0  0  0
    5.2827   -1.7244    0.0000 C   0  0  0  0  0  0  0  0  0  0  0  0
    5.5383   -2.5109    0.0000 C   0  0  0  0  0  0  0  0  0  0  0  0
    4.9849   -3.1255    0.0000 C   0  0  0  0  0  0  0  0  0  0  0  0
    4.1760   -2.9535    0.0000 C   0  0  0  0  0  0  0  0  0  0  0  0
    3.9204   -2.1670    0.0000 C   0  0  0  0  0  0  0  0  0  0  0  0
    4.4738   -1.5524    0.0000 C   0  0  0  0  0  0  0  0  0  0  0  0
    4.2182   -0.7659    0.0000 C   0  0  0  0  0  0  0  0  0  0  0  0
    3.4093   -0.5940    0.0000 C   0  0  0  0  0  0  0  0  0  0  0  0
    2.6004   -0.7659    0.0000 C   0  0  0  0  0  0  0  0  0  0  0  0
    2.1869   -0.0497    0.0000 C   0  0  0  0  0  0  0  0  0  0  0  0
    1.3610   -0.0930    0.0000 N   0  0  0  0  0  0  0  0  0  0  0  0
    0.7464    0.4604    0.0000 C   0  0  0  0  0  0  0  0  0  0  0  0
    0.0000    0.1043    0.0000 O   0  0  0  0  0  0  0  0  0  0  0  0
    0.7032    1.2862    0.0000 C   0  0  0  0  0  0  0  0  0  0  0  0
    1.2565    1.9008    0.0000 C   0  0  0  0  0  0  0  0  0  0  0  0
    2.0824    1.9441    0.0000 C   0  0  0  0  0  0  0  0  0  0  0  0
    2.6970    1.3907    0.0000 C   0  0  0  0  0  0  0  0  0  0  0  0
    2.7403    0.5649    0.0000 C   0  0  0  0  0  0  0  0  0  0  0  0
    3.4958    0.2285    0.0000 N   0  0  0  0  0  0  0  0  0  0  0  0
    4.2120    0.6420    0.0000 C   0  0  0  0  0  0  0  0  0  0  0  0
    4.9282    0.2285    0.0000 O   0  0  0  0  0  0  0  0  0  0  0  0
    4.2120    1.4690    0.0000 C   0  0  0  0  0  0  0  0  0  0  0  0
    3.4961    1.8831    0.0000 C   0  0  0  0  0  0  0  0  0  0  0  0
    3.4961    2.7114    0.0000 C   0  0  0  0  0  0  0  0  0  0  0  0
    4.2120    3.1255    0.0000 C   0  0  0  0  0  0  0  0  0  0  0  0
    4.9278    2.7114    0.0000 C   0  0  0  0  0  0  0  0  0  0  0  0
    5.6496    3.1255    0.0000 N   0  0  0  0  0  0  0  0  0  0  0  0
    6.3654    2.7114    0.0000 C   0  0  0  0  0  0  0  0  0  0  0  0
    6.3654    1.8831    0.0000 C   0  0  0  0  0  0  0  0  0  0  0  0
    5.6496    1.4690    0.0000 C   0  0  0  0  0  0  0  0  0  0  0  0
    4.9278    1.8831    0.0000 C   0  0  0  0  0  0  0  0  0  0  0  0
  1  2  1  0
  2  7  2  0
  2  3  1  0
  3  4  2  0
  4  5  1  0
  5  6  2  0
  6  7  1  0
  7  8  1  0
  9  8  1  6
  9 20  1  0
  9 10  1  0
 11 10  1  6
 11 19  1  0
 11 12  1  0
 12 13  1  0
 13 14  2  0
 13 15  1  0
 15 16  1  0
 16 17  1  0
 17 18  1  0
 19 18  1  1
 19 20  1  0
 20 21  1  0
 21 22  2  0
 21 23  1  0
 23 32  1  0
 23 24  2  0
 24 25  1  0
 25 26  2  0
 26 27  1  0
 27 32  2  0
 27 28  1  0
 28 29  2  0
 29 30  1  0
 30 31  2  0
 31 32  1  0
M  END
>  <SMILES>  (110) 
O=C1CCCC[C@@H]2[C@H](C[C@@H](Cc3ccccc3F)N2C(=O)c2cccc3ncccc23)N1

>  <CollectionName>  (110) 
emolecules

>  <LOG PLASMA PROTEIN BINDING (RAT) (% unbound)>  (110) 
1.3489665118

>  <Internal ID>  (110) 
Mol110

>  <Source>  (110) 
Biogen

$$$$
MCULE-3611790330
     RDKit          2D

 33 35  0  0  1  0  0  0  0  0999 V2000
    3.9135    2.5213    0.0000 C   0  0  0  0  0  0  0  0  0  0  0  0
    3.1977    2.1072    0.0000 C   0  0  0  0  0  0  0  0  0  0  0  0
    3.1984    1.2802    0.0000 C   0  0  0  0  0  0  0  0  0  0  0  0
    3.9150    0.8673    0.0000 C   0  0  0  0  0  0  0  0  0  0  0  0
    4.6308    1.2814    0.0000 C   0  0  0  0  0  0  0  0  0  0  0  0
    4.6301    2.1084    0.0000 C   0  0  0  0  0  0  0  0  0  0  0  0
    5.3460    2.5226    0.0000 O   0  0  0  0  0  0  0  0  0  0  0  0
    6.0625    2.1097    0.0000 C   0  0  0  0  0  0  0  0  0  0  0  0
    6.7784    2.5238    0.0000 C   0  0  0  0  0  0  0  0  0  0  0  0
    3.9157    0.0403    0.0000 C   0  0  0  0  0  0  0  0  0  0  0  0
    3.1999   -0.3738    0.0000 C   0  0  0  0  0  0  0  0  0  0  0  0
    2.4833    0.0391    0.0000 O   0  0  0  0  0  0  0  0  0  0  0  0
    3.2006   -1.2008    0.0000 N   0  0  0  0  0  0  0  0  0  0  0  0
    2.4847   -1.6149    0.0000 C   0  0  0  0  0  0  0  0  0  0  0  0
    2.0706   -0.8991    0.0000 C   0  0  0  0  0  0  0  0  0  0  0  0
    1.2436   -0.8998    0.0000 C   0  0  0  0  0  0  0  0  0  0  0  0
    0.8295   -0.1840    0.0000 C   0  0  0  0  0  0  0  0  0  0  0  0
    0.8307   -1.6164    0.0000 C   0  0  0  0  0  0  0  0  0  0  0  0
    2.8989   -2.3308    0.0000 C   0  0  0  0  0  0  0  0  0  0  0  0
    3.7271   -2.3308    0.0000 C   0  0  0  0  0  0  0  0  0  0  0  0
    4.1412   -3.0466    0.0000 C   0  0  0  0  0  0  0  0  0  0  0  0
    3.7271   -3.7624    0.0000 C   0  0  0  0  0  0  0  0  0  0  0  0
    2.8989   -3.7624    0.0000 C   0  0  0  0  0  0  0  0  0  0  0  0
    2.4847   -3.0466    0.0000 C   0  0  0  0  0  0  0  0  0  0  0  0
    1.6565   -3.0466    0.0000 N   0  0  0  0  0  0  0  0  0  0  0  0
    1.2424   -3.7624    0.0000 C   0  0  0  0  0  0  0  0  0  0  0  0
    0.4141   -3.7624    0.0000 C   0  0  0  0  0  0  0  0  0  0  0  0
    0.0000   -3.0466    0.0000 C   0  0  0  0  0  0  0  0  0  0  0  0
    0.4141   -2.3308    0.0000 C   0  0  0  0  0  0  0  0  0  0  0  0
    1.2424   -2.3308    0.0000 C   0  0  0  0  0  0  0  0  0  0  0  0
    3.9128    3.3483    0.0000 C   0  0  0  0  0  0  0  0  0  0  0  0
    3.1963    3.7612    0.0000 O   0  0  0  0  0  0  0  0  0  0  0  0
    4.6287    3.7624    0.0000 O   0  0  0  0  0  0  0  0  0  0  0  0
  1  6  2  0
  1  2  1  0
  2  3  2  0
  3  4  1  0
  4  5  2  0
  5  6  1  0
  6  7  1  0
  7  8  1  0
  8  9  1  0
  4 10  1  0
 10 11  1  0
 11 12  2  0
 11 13  1  0
 13 14  1  0
 14 15  1  6
 15 16  1  0
 16 17  1  0
 16 18  1  0
 14 19  1  0
 19 24  1  0
 19 20  2  0
 20 21  1  0
 21 22  2  0
 22 23  1  0
 23 24  2  0
 24 25  1  0
 25 30  1  0
 25 26  1  0
 26 27  1  0
 27 28  1  0
 28 29  1  0
 29 30  1  0
  1 31  1  0
 31 32  1  0
 31 33  2  0
M  END
>  <SMILES>  (111) 
CCOc1cc(CC(=O)N[C@@H](CC(C)C)c2ccccc2N2CCCCC2)ccc1C(=O)O

>  <CollectionName>  (111) 
mcule

>  <LOG PLASMA PROTEIN BINDING (RAT) (% unbound)>  (111) 
-0.0634862575211

>  <Internal ID>  (111) 
Mol111

>  <Source>  (111) 
Biogen

$$$$
323968411
     RDKit          2D

 27 30  0  0  0  0  0  0  0  0999 V2000
    2.4386    1.0523    0.0000 C   0  0  0  0  0  0  0  0  0  0  0  0
    2.0245    0.3365    0.0000 C   0  0  0  0  0  0  0  0  0  0  0  0
    1.6103   -0.3794    0.0000 O   0  0  0  0  0  0  0  0  0  0  0  0
    2.7403   -0.0777    0.0000 C   0  0  0  0  0  0  0  0  0  0  0  0
    3.4562   -0.4918    0.0000 C   0  0  0  0  0  0  0  0  0  0  0  0
    4.1720   -0.9059    0.0000 C   0  0  0  0  0  0  0  0  0  0  0  0
    4.1720   -1.7342    0.0000 C   0  0  0  0  0  0  0  0  0  0  0  0
    4.8878   -2.1483    0.0000 C   0  0  0  0  0  0  0  0  0  0  0  0
    5.6037   -1.7342    0.0000 C   0  0  0  0  0  0  0  0  0  0  0  0
    6.3905   -1.9886    0.0000 C   0  0  0  0  0  0  0  0  0  0  0  0
    6.8816   -1.3200    0.0000 C   0  0  0  0  0  0  0  0  0  0  0  0
    6.3905   -0.6515    0.0000 N   0  0  0  0  0  0  0  0  0  0  0  0
    5.6037   -0.9059    0.0000 C   0  0  0  0  0  0  0  0  0  0  0  0
    4.8878   -0.4918    0.0000 C   0  0  0  0  0  0  0  0  0  0  0  0
    6.6429    0.1360    0.0000 C   0  0  0  0  0  0  0  0  0  0  0  0
    6.0871    0.7484    0.0000 N   0  0  0  0  0  0  0  0  0  0  0  0
    6.3395    1.5359    0.0000 C   0  0  0  0  0  0  0  0  0  0  0  0
    5.7837    2.1483    0.0000 N   0  0  0  0  0  0  0  0  0  0  0  0
    7.1478    1.7111    0.0000 N   0  0  0  0  0  0  0  0  0  0  0  0
    7.7036    1.0987    0.0000 C   0  0  0  0  0  0  0  0  0  0  0  0
    7.4512    0.3112    0.0000 C   0  0  0  0  0  0  0  0  0  0  0  0
    8.0070   -0.3012    0.0000 Cl  0  0  0  0  0  0  0  0  0  0  0  0
    1.3086    0.7506    0.0000 C   0  0  0  0  0  0  0  0  0  0  0  0
    0.5528    0.4149    0.0000 N   0  0  0  0  0  0  0  0  0  0  0  0
    0.0000    1.0299    0.0000 C   0  0  0  0  0  0  0  0  0  0  0  0
    0.4141    1.7458    0.0000 C   0  0  0  0  0  0  0  0  0  0  0  0
    1.2229    1.5731    0.0000 S   0  0  0  0  0  0  0  0  0  0  0  0
  1  2  1  0
  2  3  1  0
  2  4  1  0
  4  5  3  0
  5  6  1  0
  6 14  1  0
  6  7  2  0
  7  8  1  0
  8  9  2  0
  9 13  1  0
  9 10  1  0
 10 11  1  0
 11 12  1  0
 12 13  1  0
 13 14  2  0
 12 15  1  0
 15 21  1  0
 15 16  2  0
 16 17  1  0
 17 18  1  0
 17 19  2  0
 19 20  1  0
 20 21  2  0
 21 22  1  0
  2 23  1  0
 23 27  1  0
 23 24  2  0
 24 25  1  0
 25 26  2  0
 26 27  1  0
M  END
>  <SMILES>  (112) 
CC(O)(C#Cc1ccc2c(c1)N(c1nc(N)ncc1Cl)CC2)c1nccs1

>  <CollectionName>  (112) 
emolecules

>  <LOG PLASMA PROTEIN BINDING (RAT) (% unbound)>  (112) 
0.275311354542

>  <Internal ID>  (112) 
Mol112

>  <Source>  (112) 
Biogen

$$$$
46088801
     RDKit          2D

 29 32  0  0  0  0  0  0  0  0999 V2000
    5.1372   -3.9609    0.0000 C   0  0  0  0  0  0  0  0  0  0  0  0
    4.3814   -3.6252    0.0000 O   0  0  0  0  0  0  0  0  0  0  0  0
    4.2943   -2.8028    0.0000 C   0  0  0  0  0  0  0  0  0  0  0  0
    3.5385   -2.4671    0.0000 C   0  0  0  0  0  0  0  0  0  0  0  0
    3.4513   -1.6447    0.0000 C   0  0  0  0  0  0  0  0  0  0  0  0
    2.7347   -1.2318    0.0000 N   0  0  0  0  0  0  0  0  0  0  0  0
    2.9060   -0.4227    0.0000 O   0  0  0  0  0  0  0  0  0  0  0  0
    3.7284   -0.3356    0.0000 C   0  0  0  0  0  0  0  0  0  0  0  0
    4.1412    0.3810    0.0000 C   0  0  0  0  0  0  0  0  0  0  0  0
    3.7271    1.0968    0.0000 N   0  0  0  0  0  0  0  0  0  0  0  0
    2.8989    1.0968    0.0000 C   0  0  0  0  0  0  0  0  0  0  0  0
    2.4847    1.8127    0.0000 C   0  0  0  0  0  0  0  0  0  0  0  0
    2.8989    2.5285    0.0000 C   0  0  0  0  0  0  0  0  0  0  0  0
    3.7271    2.5285    0.0000 C   0  0  0  0  0  0  0  0  0  0  0  0
    4.1412    1.8127    0.0000 C   0  0  0  0  0  0  0  0  0  0  0  0
    4.9682    1.8127    0.0000 O   0  0  0  0  0  0  0  0  0  0  0  0
    1.6565    1.8127    0.0000 C   0  0  0  0  0  0  0  0  0  0  0  0
    1.2424    1.0968    0.0000 C   0  0  0  0  0  0  0  0  0  0  0  0
    0.4141    1.0968    0.0000 C   0  0  0  0  0  0  0  0  0  0  0  0
    0.0000    1.8127    0.0000 C   0  0  0  0  0  0  0  0  0  0  0  0
    0.4141    2.5285    0.0000 C   0  0  0  0  0  0  0  0  0  0  0  0
    1.2424    2.5285    0.0000 C   0  0  0  0  0  0  0  0  0  0  0  0
    2.0706    2.5285    0.0000 C   0  0  0  0  0  0  0  0  0  0  0  0
    1.2436    2.5278    0.0000 C   0  0  0  0  0  0  0  0  0  0  0  0
    0.8295    3.2436    0.0000 C   0  0  0  0  0  0  0  0  0  0  0  0
    1.2424    3.9602    0.0000 C   0  0  0  0  0  0  0  0  0  0  0  0
    2.0694    3.9609    0.0000 C   0  0  0  0  0  0  0  0  0  0  0  0
    2.4835    3.2451    0.0000 C   0  0  0  0  0  0  0  0  0  0  0  0
    4.0654   -1.0908    0.0000 N   0  0  0  0  0  0  0  0  0  0  0  0
  1  2  1  0
  2  3  1  0
  3  4  1  0
  4  5  1  0
  5 29  1  0
  5  6  2  0
  6  7  1  0
  7  8  1  0
  8  9  1  0
  9 10  1  0
 10 15  1  0
 10 11  1  0
 11 12  1  0
 12 13  1  0
 13 14  1  0
 14 15  1  0
 15 16  2  0
 12 17  1  0
 17 22  1  0
 17 18  2  0
 18 19  1  0
 19 20  2  0
 20 21  1  0
 21 22  2  0
 12 23  1  0
 23 28  1  0
 23 24  2  0
 24 25  1  0
 25 26  2  0
 26 27  1  0
 27 28  2  0
  8 29  2  0
M  END
>  <SMILES>  (113) 
COCCc1noc(CN2CC(c3ccccc3)(c3ccccc3)CCC2=O)n1

>  <CollectionName>  (113) 
emolecules

>  <LOG PLASMA PROTEIN BINDING (RAT) (% unbound)>  (113) 
1.25166254999

>  <Internal ID>  (113) 
Mol113

>  <Source>  (113) 
Biogen

$$$$
44392699
     RDKit          2D

 16 18  0  0  0  0  0  0  0  0999 V2000
    3.1868   -0.6291    0.0000 C   0  0  0  0  0  0  0  0  0  0  0  0
    2.9344    0.1585    0.0000 C   0  0  0  0  0  0  0  0  0  0  0  0
    3.4254    0.8270    0.0000 N   0  0  0  0  0  0  0  0  0  0  0  0
    2.9344    1.4955    0.0000 N   0  0  0  0  0  0  0  0  0  0  0  0
    2.1475    1.2411    0.0000 C   0  0  0  0  0  0  0  0  0  0  0  0
    1.4317    1.6552    0.0000 N   0  0  0  0  0  0  0  0  0  0  0  0
    0.7158    1.2411    0.0000 C   0  0  0  0  0  0  0  0  0  0  0  0
    0.0000    1.6552    0.0000 O   0  0  0  0  0  0  0  0  0  0  0  0
    0.7158    0.4129    0.0000 C   0  0  0  0  0  0  0  0  0  0  0  0
    1.4317   -0.0012    0.0000 C   0  0  0  0  0  0  0  0  0  0  0  0
    2.1479   -0.4147    0.0000 C   0  0  0  0  0  0  0  0  0  0  0  0
    2.1479   -1.2417    0.0000 C   0  0  0  0  0  0  0  0  0  0  0  0
    1.4317   -1.6552    0.0000 C   0  0  0  0  0  0  0  0  0  0  0  0
    0.7155   -1.2417    0.0000 C   0  0  0  0  0  0  0  0  0  0  0  0
    0.7155   -0.4147    0.0000 C   0  0  0  0  0  0  0  0  0  0  0  0
    2.1475    0.4129    0.0000 C   0  0  0  0  0  0  0  0  0  0  0  0
  1  2  1  0
  2 16  2  0
  2  3  1  0
  3  4  1  0
  4  5  2  0
  5 16  1  0
  5  6  1  0
  6  7  1  0
  7  8  2  0
  7  9  1  0
  9 10  1  0
 10 15  1  0
 10 11  1  0
 11 12  1  0
 12 13  1  0
 13 14  1  0
 14 15  1  0
 10 16  1  0
M  END
>  <SMILES>  (114) 
Cc1[nH]nc2c1C1(CCCCC1)CC(=O)N2

>  <CollectionName>  (114) 
emolecules

>  <LOG PLASMA PROTEIN BINDING (RAT) (% unbound)>  (114) 
1.28463373316

>  <Internal ID>  (114) 
Mol114

>  <Source>  (114) 
Biogen

$$$$
49942166
     RDKit          2D

 23 26  0  0  0  0  0  0  0  0999 V2000
    3.5366    2.8612    0.0000 C   0  0  0  0  0  0  0  0  0  0  0  0
    2.7096    2.8612    0.0000 C   0  0  0  0  0  0  0  0  0  0  0  0
    2.2185    3.5297    0.0000 O   0  0  0  0  0  0  0  0  0  0  0  0
    1.4317    3.2753    0.0000 C   0  0  0  0  0  0  0  0  0  0  0  0
    0.7158    3.6894    0.0000 C   0  0  0  0  0  0  0  0  0  0  0  0
    0.0000    3.2753    0.0000 C   0  0  0  0  0  0  0  0  0  0  0  0
    0.0000    2.4470    0.0000 C   0  0  0  0  0  0  0  0  0  0  0  0
    0.7158    2.0329    0.0000 C   0  0  0  0  0  0  0  0  0  0  0  0
    1.4317    2.4470    0.0000 C   0  0  0  0  0  0  0  0  0  0  0  0
    2.2185    2.1926    0.0000 C   0  0  0  0  0  0  0  0  0  0  0  0
    2.4709    1.4051    0.0000 C   0  0  0  0  0  0  0  0  0  0  0  0
    1.9151    0.7927    0.0000 N   0  0  0  0  0  0  0  0  0  0  0  0
    2.1675    0.0052    0.0000 C   0  0  0  0  0  0  0  0  0  0  0  0
    2.9530   -0.2535    0.0000 N   0  0  0  0  0  0  0  0  0  0  0  0
    2.9497   -1.0805    0.0000 N   0  0  0  0  0  0  0  0  0  0  0  0
    2.1622   -1.3329    0.0000 C   0  0  0  0  0  0  0  0  0  0  0  0
    1.6788   -0.6619    0.0000 O   0  0  0  0  0  0  0  0  0  0  0  0
    1.9035   -2.1184    0.0000 C   0  0  0  0  0  0  0  0  0  0  0  0
    2.4544   -2.7352    0.0000 C   0  0  0  0  0  0  0  0  0  0  0  0
    2.1957   -3.5207    0.0000 C   0  0  0  0  0  0  0  0  0  0  0  0
    1.3861   -3.6894    0.0000 N   0  0  0  0  0  0  0  0  0  0  0  0
    0.8352   -3.0726    0.0000 C   0  0  0  0  0  0  0  0  0  0  0  0
    1.0939   -2.2871    0.0000 C   0  0  0  0  0  0  0  0  0  0  0  0
  1  2  1  0
  2 10  2  0
  2  3  1  0
  3  4  1  0
  4  9  2  0
  4  5  1  0
  5  6  2  0
  6  7  1  0
  7  8  2  0
  8  9  1  0
  9 10  1  0
 10 11  1  0
 11 12  1  0
 12 13  1  0
 13 17  1  0
 13 14  2  0
 14 15  1  0
 15 16  2  0
 16 17  1  0
 16 18  1  0
 18 23  1  0
 18 19  2  0
 19 20  1  0
 20 21  2  0
 21 22  1  0
 22 23  2  0
M  END
>  <SMILES>  (115) 
Cc1oc2ccccc2c1CNc1nnc(-c2ccncc2)o1

>  <CollectionName>  (115) 
emolecules

>  <LOG PLASMA PROTEIN BINDING (RAT) (% unbound)>  (115) 
-0.172630726946

>  <Internal ID>  (115) 
Mol115

>  <Source>  (115) 
Biogen

$$$$
4768067
     RDKit          2D

 28 31  0  0  0  0  0  0  0  0999 V2000
    2.8648    1.0325    0.0000 O   0  0  0  0  0  0  0  0  0  0  0  0
    3.5810    0.6190    0.0000 C   0  0  0  0  0  0  0  0  0  0  0  0
    4.2972    1.0325    0.0000 N   0  0  0  0  0  0  0  0  0  0  0  0
    4.2972    1.8595    0.0000 C   0  0  0  0  0  0  0  0  0  0  0  0
    3.5814    2.2736    0.0000 C   0  0  0  0  0  0  0  0  0  0  0  0
    3.5814    3.1019    0.0000 C   0  0  0  0  0  0  0  0  0  0  0  0
    4.2972    3.5160    0.0000 C   0  0  0  0  0  0  0  0  0  0  0  0
    5.0131    3.1019    0.0000 C   0  0  0  0  0  0  0  0  0  0  0  0
    5.7348    3.5160    0.0000 N   0  0  0  0  0  0  0  0  0  0  0  0
    6.4507    3.1019    0.0000 C   0  0  0  0  0  0  0  0  0  0  0  0
    6.4507    2.2736    0.0000 C   0  0  0  0  0  0  0  0  0  0  0  0
    5.7348    1.8595    0.0000 C   0  0  0  0  0  0  0  0  0  0  0  0
    5.0131    2.2736    0.0000 C   0  0  0  0  0  0  0  0  0  0  0  0
    3.5810   -0.2080    0.0000 C   0  0  0  0  0  0  0  0  0  0  0  0
    4.2972   -0.6215    0.0000 C   0  0  0  0  0  0  0  0  0  0  0  0
    4.2972   -1.4485    0.0000 C   0  0  0  0  0  0  0  0  0  0  0  0
    3.5810   -1.8620    0.0000 C   0  0  0  0  0  0  0  0  0  0  0  0
    2.8648   -1.4485    0.0000 N   0  0  0  0  0  0  0  0  0  0  0  0
    2.8648   -0.6215    0.0000 C   0  0  0  0  0  0  0  0  0  0  0  0
    2.1486   -1.8620    0.0000 S   0  0  0  0  0  0  0  0  0  0  0  0
    1.7351   -1.1458    0.0000 O   0  0  0  0  0  0  0  0  0  0  0  0
    2.5621   -2.5782    0.0000 O   0  0  0  0  0  0  0  0  0  0  0  0
    1.4324   -2.2755    0.0000 C   0  0  0  0  0  0  0  0  0  0  0  0
    1.4324   -3.1025    0.0000 C   0  0  0  0  0  0  0  0  0  0  0  0
    0.7162   -3.5160    0.0000 C   0  0  0  0  0  0  0  0  0  0  0  0
    0.0000   -3.1025    0.0000 C   0  0  0  0  0  0  0  0  0  0  0  0
    0.0000   -2.2755    0.0000 C   0  0  0  0  0  0  0  0  0  0  0  0
    0.7162   -1.8620    0.0000 C   0  0  0  0  0  0  0  0  0  0  0  0
  1  2  2  0
  2  3  1  0
  3  4  1  0
  4 13  1  0
  4  5  2  0
  5  6  1  0
  6  7  2  0
  7  8  1  0
  8 13  2  0
  8  9  1  0
  9 10  2  0
 10 11  1  0
 11 12  2  0
 12 13  1  0
  2 14  1  0
 14 19  1  0
 14 15  1  0
 15 16  1  0
 16 17  1  0
 17 18  1  0
 18 19  1  0
 18 20  1  0
 20 21  2  0
 20 22  2  0
 20 23  1  0
 23 28  1  0
 23 24  2  0
 24 25  1  0
 25 26  2  0
 26 27  1  0
 27 28  2  0
M  END
>  <SMILES>  (116) 
O=C(Nc1cccc2ncccc12)C1CCCN(S(=O)(=O)c2ccccc2)C1

>  <CollectionName>  (116) 
emolecules

>  <LOG PLASMA PROTEIN BINDING (RAT) (% unbound)>  (116) 
1.0916669576

>  <Internal ID>  (116) 
Mol116

>  <Source>  (116) 
Biogen

$$$$
11002413
     RDKit          2D

 29 33  0  0  0  0  0  0  0  0999 V2000
    3.5366   -2.8666    0.0000 C   0  0  0  0  0  0  0  0  0  0  0  0
    2.7096   -2.8666    0.0000 C   0  0  0  0  0  0  0  0  0  0  0  0
    2.2185   -3.5351    0.0000 C   0  0  0  0  0  0  0  0  0  0  0  0
    1.4317   -3.2807    0.0000 C   0  0  0  0  0  0  0  0  0  0  0  0
    0.7158   -3.6948    0.0000 C   0  0  0  0  0  0  0  0  0  0  0  0
    0.0000   -3.2807    0.0000 C   0  0  0  0  0  0  0  0  0  0  0  0
    0.0000   -2.4525    0.0000 C   0  0  0  0  0  0  0  0  0  0  0  0
    0.7158   -2.0383    0.0000 C   0  0  0  0  0  0  0  0  0  0  0  0
    1.4317   -2.4525    0.0000 C   0  0  0  0  0  0  0  0  0  0  0  0
    2.2185   -2.1981    0.0000 N   0  0  0  0  0  0  0  0  0  0  0  0
    2.4709   -1.4105    0.0000 C   0  0  0  0  0  0  0  0  0  0  0  0
    1.9151   -0.7982    0.0000 O   0  0  0  0  0  0  0  0  0  0  0  0
    3.2792   -1.2354    0.0000 C   0  0  0  0  0  0  0  0  0  0  0  0
    3.5316   -0.4478    0.0000 N   0  0  0  0  0  0  0  0  0  0  0  0
    3.0428    0.2193    0.0000 N   0  0  0  0  0  0  0  0  0  0  0  0
    3.5262    0.8903    0.0000 C   0  0  0  0  0  0  0  0  0  0  0  0
    4.3138    0.6379    0.0000 O   0  0  0  0  0  0  0  0  0  0  0  0
    4.3171   -0.1891    0.0000 C   0  0  0  0  0  0  0  0  0  0  0  0
    4.9881   -0.6726    0.0000 O   0  0  0  0  0  0  0  0  0  0  0  0
    3.2675    1.6758    0.0000 C   0  0  0  0  0  0  0  0  0  0  0  0
    2.4579    1.8445    0.0000 C   0  0  0  0  0  0  0  0  0  0  0  0
    2.1992    2.6300    0.0000 C   0  0  0  0  0  0  0  0  0  0  0  0
    2.7502    3.2468    0.0000 C   0  0  0  0  0  0  0  0  0  0  0  0
    3.5598    3.0781    0.0000 C   0  0  0  0  0  0  0  0  0  0  0  0
    4.1107    3.6948    0.0000 N   0  0  0  0  0  0  0  0  0  0  0  0
    4.9203    3.5261    0.0000 C   0  0  0  0  0  0  0  0  0  0  0  0
    5.1790    2.7406    0.0000 C   0  0  0  0  0  0  0  0  0  0  0  0
    4.6281    2.1238    0.0000 C   0  0  0  0  0  0  0  0  0  0  0  0
    3.8185    2.2926    0.0000 C   0  0  0  0  0  0  0  0  0  0  0  0
  1  2  1  0
  2 10  1  0
  2  3  1  0
  3  4  1  0
  4  9  2  0
  4  5  1  0
  5  6  2  0
  6  7  1  0
  7  8  2  0
  8  9  1  0
  9 10  1  0
 10 11  1  0
 11 12  2  0
 11 13  1  0
 13 14  1  0
 14 18  1  0
 14 15  1  0
 15 16  2  0
 16 17  1  0
 17 18  1  0
 18 19  2  0
 16 20  1  0
 20 29  1  0
 20 21  2  0
 21 22  1  0
 22 23  2  0
 23 24  1  0
 24 29  2  0
 24 25  1  0
 25 26  2  0
 26 27  1  0
 27 28  2  0
 28 29  1  0
M  END
>  <SMILES>  (117) 
CC1Cc2ccccc2N1C(=O)Cn1nc(-c2cccc3ncccc23)oc1=O

>  <CollectionName>  (117) 
emolecules

>  <LOG PLASMA PROTEIN BINDING (RAT) (% unbound)>  (117) 
0.36040405473

>  <Internal ID>  (117) 
Mol117

>  <Source>  (117) 
Biogen

$$$$
29371307
     RDKit          2D

 24 28  0  0  0  0  0  0  0  0999 V2000
    4.7168   -0.8942    0.0000 N   0  0  0  0  0  0  0  0  0  0  0  0
    3.9080   -1.0669    0.0000 C   0  0  0  0  0  0  0  0  0  0  0  0
    3.6531   -1.8536    0.0000 N   0  0  0  0  0  0  0  0  0  0  0  0
    2.8443   -2.0263    0.0000 C   0  0  0  0  0  0  0  0  0  0  0  0
    2.2904   -1.4122    0.0000 N   0  0  0  0  0  0  0  0  0  0  0  0
    2.5453   -0.6254    0.0000 C   0  0  0  0  0  0  0  0  0  0  0  0
    2.1312    0.0904    0.0000 N   0  0  0  0  0  0  0  0  0  0  0  0
    2.6840    0.7055    0.0000 N   0  0  0  0  0  0  0  0  0  0  0  0
    3.4398    0.3698    0.0000 C   0  0  0  0  0  0  0  0  0  0  0  0
    4.1556    0.7839    0.0000 C   0  0  0  0  0  0  0  0  0  0  0  0
    4.1556    1.6121    0.0000 C   0  0  0  0  0  0  0  0  0  0  0  0
    4.8715    2.0263    0.0000 N   0  0  0  0  0  0  0  0  0  0  0  0
    5.5873    1.6121    0.0000 C   0  0  0  0  0  0  0  0  0  0  0  0
    6.3742    1.8665    0.0000 N   0  0  0  0  0  0  0  0  0  0  0  0
    6.8652    1.1980    0.0000 C   0  0  0  0  0  0  0  0  0  0  0  0
    6.3742    0.5295    0.0000 C   0  0  0  0  0  0  0  0  0  0  0  0
    5.5873    0.7839    0.0000 C   0  0  0  0  0  0  0  0  0  0  0  0
    4.8715    0.3698    0.0000 C   0  0  0  0  0  0  0  0  0  0  0  0
    3.3541   -0.4528    0.0000 C   0  0  0  0  0  0  0  0  0  0  0  0
    1.3086    0.1762    0.0000 C   0  0  0  0  0  0  0  0  0  0  0  0
    0.7558   -0.4389    0.0000 C   0  0  0  0  0  0  0  0  0  0  0  0
    0.0000   -0.1032    0.0000 C   0  0  0  0  0  0  0  0  0  0  0  0
    0.0857    0.7193    0.0000 C   0  0  0  0  0  0  0  0  0  0  0  0
    0.8945    0.8920    0.0000 C   0  0  0  0  0  0  0  0  0  0  0  0
  1  2  1  0
  2 19  2  0
  2  3  1  0
  3  4  2  0
  4  5  1  0
  5  6  2  0
  6 19  1  0
  6  7  1  0
  7  8  1  0
  8  9  2  0
  9 10  1  0
 10 18  1  0
 10 11  2  0
 11 12  1  0
 12 13  2  0
 13 17  1  0
 13 14  1  0
 14 15  1  0
 15 16  2  0
 16 17  1  0
 17 18  2  0
  9 19  1  0
  7 20  1  0
 20 24  1  0
 20 21  1  0
 21 22  1  0
 22 23  1  0
 23 24  1  0
M  END
>  <SMILES>  (118) 
Nc1ncnc2c1c(-c1cnc3[nH]ccc3c1)nn2C1CCCC1

>  <CollectionName>  (118) 
emolecules

>  <LOG PLASMA PROTEIN BINDING (RAT) (% unbound)>  (118) 
0.780605305839

>  <Internal ID>  (118) 
Mol118

>  <Source>  (118) 
Biogen

$$$$
320368312
     RDKit          2D

 28 31  0  0  0  0  0  0  0  0999 V2000
    4.9682   -3.2783    0.0000 Cl  0  0  0  0  0  0  0  0  0  0  0  0
    4.1412   -3.2783    0.0000 C   0  0  0  0  0  0  0  0  0  0  0  0
    3.7271   -2.5625    0.0000 C   0  0  0  0  0  0  0  0  0  0  0  0
    2.8989   -2.5625    0.0000 C   0  0  0  0  0  0  0  0  0  0  0  0
    2.4847   -3.2783    0.0000 C   0  0  0  0  0  0  0  0  0  0  0  0
    2.8989   -3.9942    0.0000 C   0  0  0  0  0  0  0  0  0  0  0  0
    3.7271   -3.9942    0.0000 C   0  0  0  0  0  0  0  0  0  0  0  0
    1.6565   -3.2783    0.0000 C   0  0  0  0  0  0  0  0  0  0  0  0
    1.2424   -3.9942    0.0000 C   0  0  0  0  0  0  0  0  0  0  0  0
    0.4141   -3.9942    0.0000 C   0  0  0  0  0  0  0  0  0  0  0  0
    0.0000   -3.2783    0.0000 N   0  0  0  0  0  0  0  0  0  0  0  0
    0.4141   -2.5625    0.0000 C   0  0  0  0  0  0  0  0  0  0  0  0
    1.2424   -2.5625    0.0000 C   0  0  0  0  0  0  0  0  0  0  0  0
    1.6565   -1.8466    0.0000 N   0  0  0  0  0  0  0  0  0  0  0  0
    1.2436   -1.1301    0.0000 C   0  0  0  0  0  0  0  0  0  0  0  0
    0.4166   -1.1293    0.0000 O   0  0  0  0  0  0  0  0  0  0  0  0
    1.6577   -0.4142    0.0000 C   0  0  0  0  0  0  0  0  0  0  0  0
    2.4847   -0.4149    0.0000 C   0  0  0  0  0  0  0  0  0  0  0  0
    2.8989    0.3009    0.0000 C   0  0  0  0  0  0  0  0  0  0  0  0
    2.4860    1.0175    0.0000 N   0  0  0  0  0  0  0  0  0  0  0  0
    1.6590    1.0182    0.0000 C   0  0  0  0  0  0  0  0  0  0  0  0
    1.2461    1.7347    0.0000 N   0  0  0  0  0  0  0  0  0  0  0  0
    1.6602    2.4506    0.0000 C   0  0  0  0  0  0  0  0  0  0  0  0
    2.4872    2.4499    0.0000 O   0  0  0  0  0  0  0  0  0  0  0  0
    1.2474    3.1672    0.0000 C   0  0  0  0  0  0  0  0  0  0  0  0
    1.2481    3.9942    0.0000 C   0  0  0  0  0  0  0  0  0  0  0  0
    0.5315    3.5813    0.0000 C   0  0  0  0  0  0  0  0  0  0  0  0
    1.2449    0.3023    0.0000 C   0  0  0  0  0  0  0  0  0  0  0  0
  1  2  1  0
  2  7  2  0
  2  3  1  0
  3  4  2  0
  4  5  1  0
  5  6  2  0
  6  7  1  0
  5  8  1  0
  8 13  1  0
  8  9  2  0
  9 10  1  0
 10 11  2  0
 11 12  1  0
 12 13  2  0
 13 14  1  0
 14 15  1  0
 15 16  2  0
 15 17  1  0
 17 28  1  0
 17 18  2  0
 18 19  1  0
 19 20  2  0
 20 21  1  0
 21 22  1  0
 22 23  1  0
 23 24  2  0
 23 25  1  0
 25 27  1  0
 25 26  1  0
 26 27  1  0
 21 28  2  0
M  END
>  <SMILES>  (119) 
O=C(Nc1cnccc1-c1ccc(Cl)cc1)c1ccnc(NC(=O)C2CC2)c1

>  <CollectionName>  (119) 
emolecules

>  <LOG PLASMA PROTEIN BINDING (RAT) (% unbound)>  (119) 
0.847634344318

>  <Internal ID>  (119) 
Mol119

>  <Source>  (119) 
Biogen

$$$$
89942274
     RDKit          2D

 28 30  0  0  1  0  0  0  0  0999 V2000
   -4.4634    1.5432    0.0000 C   0  0  0  0  0  0  0  0  0  0  0  0
   -3.6364    1.5432    0.0000 N   0  0  0  0  0  0  0  0  0  0  0  0
   -3.2229    2.2594    0.0000 C   0  0  0  0  0  0  0  0  0  0  0  0
   -3.6364    2.9756    0.0000 N   0  0  0  0  0  0  0  0  0  0  0  0
   -2.3959    2.2594    0.0000 N   0  0  0  0  0  0  0  0  0  0  0  0
   -1.9824    1.5432    0.0000 C   0  0  0  0  0  0  0  0  0  0  0  0
   -1.2662    1.1297    0.0000 C   0  0  0  0  0  0  0  0  0  0  0  0
   -2.3959    0.8270    0.0000 C   0  0  0  0  0  0  0  0  0  0  0  0
   -3.2229    0.8270    0.0000 S   0  0  0  0  0  0  0  0  0  0  0  0
   -3.2229    0.0000    0.0000 O   0  0  0  0  0  0  0  0  0  0  0  0
   -3.9391    0.4135    0.0000 O   0  0  0  0  0  0  0  0  0  0  0  0
   -1.2662    1.9567    0.0000 C   0  0  0  0  0  0  0  0  0  0  0  0
   -0.5500    1.5432    0.0000 C   0  0  0  0  0  0  0  0  0  0  0  0
    0.1662    1.9567    0.0000 C   0  0  0  0  0  0  0  0  0  0  0  0
    0.8824    1.5432    0.0000 N   0  0  0  0  0  0  0  0  0  0  0  0
    1.5986    1.9567    0.0000 C   0  0  0  0  0  0  0  0  0  0  0  0
    1.5986    2.7837    0.0000 O   0  0  0  0  0  0  0  0  0  0  0  0
    2.3148    1.5432    0.0000 C   0  0  0  0  0  0  0  0  0  0  0  0
    3.0310    1.9567    0.0000 C   0  0  0  0  0  0  0  0  0  0  0  0
    3.7472    1.5432    0.0000 C   0  0  0  0  0  0  0  0  0  0  0  0
    3.7472    0.7162    0.0000 C   0  0  0  0  0  0  0  0  0  0  0  0
    4.4634    0.3027    0.0000 F   0  0  0  0  0  0  0  0  0  0  0  0
    3.0310    0.3027    0.0000 C   0  0  0  0  0  0  0  0  0  0  0  0
    2.3148    0.7162    0.0000 N   0  0  0  0  0  0  0  0  0  0  0  0
    0.1662    2.7837    0.0000 C   0  0  0  0  0  0  0  0  0  0  0  0
   -0.5500    3.1972    0.0000 C   0  0  0  0  0  0  0  0  0  0  0  0
   -1.2662    2.7837    0.0000 C   0  0  0  0  0  0  0  0  0  0  0  0
   -1.9824    3.1972    0.0000 F   0  0  0  0  0  0  0  0  0  0  0  0
  1  2  1  0
  2  9  1  0
  2  3  1  0
  3  4  1  0
  3  5  2  0
  5  6  1  0
  6  7  1  1
  6  8  1  0
  8  9  1  0
  9 10  2  0
  9 11  2  0
  6 12  1  0
 12 27  1  0
 12 13  2  0
 13 14  1  0
 14 15  1  0
 15 16  1  0
 16 17  2  0
 16 18  1  0
 18 24  1  0
 18 19  2  0
 19 20  1  0
 20 21  2  0
 21 22  1  0
 21 23  1  0
 23 24  2  0
 14 25  2  0
 25 26  1  0
 26 27  2  0
 27 28  1  0
M  END
>  <SMILES>  (120) 
CN1C(N)=N[C@](C)(c2cc(NC(=O)c3ccc(F)cn3)ccc2F)CS1(=O)=O

>  <CollectionName>  (120) 
emolecules

>  <LOG PLASMA PROTEIN BINDING (RAT) (% unbound)>  (120) 
1.49141772822

>  <Internal ID>  (120) 
Mol120

>  <Source>  (120) 
Biogen

$$$$
44550372
     RDKit          2D

 27 30  0  0  0  0  0  0  0  0999 V2000
    4.1412    2.8641    0.0000 C   0  0  0  0  0  0  0  0  0  0  0  0
    3.7271    2.1482    0.0000 C   0  0  0  0  0  0  0  0  0  0  0  0
    4.1412    1.4324    0.0000 C   0  0  0  0  0  0  0  0  0  0  0  0
    3.7271    0.7166    0.0000 N   0  0  0  0  0  0  0  0  0  0  0  0
    2.8989    0.7166    0.0000 C   0  0  0  0  0  0  0  0  0  0  0  0
    2.4847    1.4324    0.0000 C   0  0  0  0  0  0  0  0  0  0  0  0
    2.8989    2.1482    0.0000 O   0  0  0  0  0  0  0  0  0  0  0  0
    1.6565    1.4324    0.0000 C   0  0  0  0  0  0  0  0  0  0  0  0
    1.2424    0.7166    0.0000 C   0  0  0  0  0  0  0  0  0  0  0  0
    0.4141    0.7166    0.0000 C   0  0  0  0  0  0  0  0  0  0  0  0
    0.0000    1.4324    0.0000 C   0  0  0  0  0  0  0  0  0  0  0  0
    0.4141    2.1482    0.0000 C   0  0  0  0  0  0  0  0  0  0  0  0
    1.2424    2.1482    0.0000 C   0  0  0  0  0  0  0  0  0  0  0  0
    4.1412    0.0007    0.0000 C   0  0  0  0  0  0  0  0  0  0  0  0
    3.7284   -0.7158    0.0000 O   0  0  0  0  0  0  0  0  0  0  0  0
    4.9682    0.0014    0.0000 C   0  0  0  0  0  0  0  0  0  0  0  0
    5.3811    0.7180    0.0000 C   0  0  0  0  0  0  0  0  0  0  0  0
    6.2081    0.7187    0.0000 C   0  0  0  0  0  0  0  0  0  0  0  0
    6.6222    0.0029    0.0000 C   0  0  0  0  0  0  0  0  0  0  0  0
    6.2094   -0.7137    0.0000 N   0  0  0  0  0  0  0  0  0  0  0  0
    5.3824   -0.7144    0.0000 C   0  0  0  0  0  0  0  0  0  0  0  0
    4.9695   -1.4310    0.0000 N   0  0  0  0  0  0  0  0  0  0  0  0
    4.1425   -1.4317    0.0000 C   0  0  0  0  0  0  0  0  0  0  0  0
    3.7296   -2.1482    0.0000 C   0  0  0  0  0  0  0  0  0  0  0  0
    4.1437   -2.8641    0.0000 O   0  0  0  0  0  0  0  0  0  0  0  0
    4.9707   -2.8634    0.0000 C   0  0  0  0  0  0  0  0  0  0  0  0
    5.3836   -2.1468    0.0000 C   0  0  0  0  0  0  0  0  0  0  0  0
  1  2  1  0
  2  7  1  0
  2  3  1  0
  3  4  1  0
  4  5  1  0
  5  6  1  0
  6  7  1  0
  6  8  1  0
  8 13  1  0
  8  9  2  0
  9 10  1  0
 10 11  2  0
 11 12  1  0
 12 13  2  0
  4 14  1  0
 14 15  2  0
 14 16  1  0
 16 21  1  0
 16 17  2  0
 17 18  1  0
 18 19  2  0
 19 20  1  0
 20 21  2  0
 21 22  1  0
 22 27  1  0
 22 23  1  0
 23 24  1  0
 24 25  1  0
 25 26  1  0
 26 27  1  0
M  END
>  <SMILES>  (121) 
CC1CN(C(=O)c2cccnc2N2CCOCC2)CC(c2ccccc2)O1

>  <CollectionName>  (121) 
emolecules

>  <LOG PLASMA PROTEIN BINDING (RAT) (% unbound)>  (121) 
1.55568681404

>  <Internal ID>  (121) 
Mol121

>  <Source>  (121) 
Biogen

$$$$
511449
     RDKit          2D

 18 18  0  0  0  0  0  0  0  0999 V2000
   -3.9283    0.0000    0.0000 C   0  0  0  0  0  0  0  0  0  0  0  0
   -3.1012    0.0000    0.0000 C   0  0  0  0  0  0  0  0  0  0  0  0
   -2.6878    0.7162    0.0000 C   0  0  0  0  0  0  0  0  0  0  0  0
   -1.8607    0.7162    0.0000 C   0  0  0  0  0  0  0  0  0  0  0  0
   -1.4473    1.4324    0.0000 N   0  0  0  0  0  0  0  0  0  0  0  0
   -0.6202    1.4324    0.0000 C   0  0  0  0  0  0  0  0  0  0  0  0
   -0.2068    0.7162    0.0000 O   0  0  0  0  0  0  0  0  0  0  0  0
   -0.2068    2.1486    0.0000 N   0  0  0  0  0  0  0  0  0  0  0  0
    0.6202    2.1486    0.0000 S   0  0  0  0  0  0  0  0  0  0  0  0
    0.6202    2.9756    0.0000 O   0  0  0  0  0  0  0  0  0  0  0  0
    0.6202    1.3216    0.0000 O   0  0  0  0  0  0  0  0  0  0  0  0
    1.4473    2.1486    0.0000 C   0  0  0  0  0  0  0  0  0  0  0  0
    1.8607    2.8648    0.0000 C   0  0  0  0  0  0  0  0  0  0  0  0
    2.6878    2.8648    0.0000 C   0  0  0  0  0  0  0  0  0  0  0  0
    3.1012    2.1486    0.0000 C   0  0  0  0  0  0  0  0  0  0  0  0
    3.9283    2.1486    0.0000 C   0  0  0  0  0  0  0  0  0  0  0  0
    2.6878    1.4324    0.0000 C   0  0  0  0  0  0  0  0  0  0  0  0
    1.8607    1.4324    0.0000 C   0  0  0  0  0  0  0  0  0  0  0  0
  1  2  1  0
  2  3  1  0
  3  4  1  0
  4  5  1  0
  5  6  1  0
  6  7  2  0
  6  8  1  0
  8  9  1  0
  9 10  2  0
  9 11  2  0
  9 12  1  0
 12 18  2  0
 12 13  1  0
 13 14  2  0
 14 15  1  0
 15 16  1  0
 15 17  2  0
 17 18  1  0
M  END
>  <SMILES>  (122) 
CCCCNC(=O)NS(=O)(=O)c1ccc(C)cc1

>  <CollectionName>  (122) 
emolecules

>  <LOG PLASMA PROTEIN BINDING (RAT) (% unbound)>  (122) 
0.440121603188

>  <Internal ID>  (122) 
Mol122

>  <Source>  (122) 
Biogen

$$$$
197915
     RDKit          2D

 28 31  0  0  0  0  0  0  0  0999 V2000
    5.1377    1.1360    0.0000 C   0  0  0  0  0  0  0  0  0  0  0  0
    4.7236    0.4202    0.0000 C   0  0  0  0  0  0  0  0  0  0  0  0
    5.1377   -0.2957    0.0000 C   0  0  0  0  0  0  0  0  0  0  0  0
    4.7236   -1.0115    0.0000 C   0  0  0  0  0  0  0  0  0  0  0  0
    5.1377   -1.7274    0.0000 N   0  0  0  0  0  0  0  0  0  0  0  0
    4.7248   -2.4439    0.0000 C   0  0  0  0  0  0  0  0  0  0  0  0
    5.1389   -3.1598    0.0000 C   0  0  0  0  0  0  0  0  0  0  0  0
    4.7261   -3.8763    0.0000 N   0  0  0  0  0  0  0  0  0  0  0  0
    3.8991   -3.8770    0.0000 C   0  0  0  0  0  0  0  0  0  0  0  0
    3.4849   -3.1612    0.0000 C   0  0  0  0  0  0  0  0  0  0  0  0
    3.8978   -2.4446    0.0000 N   0  0  0  0  0  0  0  0  0  0  0  0
    3.8953   -1.0115    0.0000 C   0  0  0  0  0  0  0  0  0  0  0  0
    3.4812   -0.2957    0.0000 C   0  0  0  0  0  0  0  0  0  0  0  0
    3.8953    0.4202    0.0000 N   0  0  0  0  0  0  0  0  0  0  0  0
    2.6529   -0.2957    0.0000 C   0  0  0  0  0  0  0  0  0  0  0  0
    2.2388   -1.0115    0.0000 C   0  0  0  0  0  0  0  0  0  0  0  0
    1.4106   -1.0115    0.0000 C   0  0  0  0  0  0  0  0  0  0  0  0
    0.9964   -0.2957    0.0000 C   0  0  0  0  0  0  0  0  0  0  0  0
    1.4106    0.4202    0.0000 N   0  0  0  0  0  0  0  0  0  0  0  0
    0.9964    1.1360    0.0000 C   0  0  0  0  0  0  0  0  0  0  0  0
    1.4093    1.8526    0.0000 C   0  0  0  0  0  0  0  0  0  0  0  0
    2.2363    1.8533    0.0000 O   0  0  0  0  0  0  0  0  0  0  0  0
    0.9952    2.5684    0.0000 N   0  0  0  0  0  0  0  0  0  0  0  0
    0.1726    2.6541    0.0000 C   0  0  0  0  0  0  0  0  0  0  0  0
    0.0000    3.4629    0.0000 C   0  0  0  0  0  0  0  0  0  0  0  0
    0.7158    3.8770    0.0000 C   0  0  0  0  0  0  0  0  0  0  0  0
    1.3309    3.3242    0.0000 C   0  0  0  0  0  0  0  0  0  0  0  0
    2.2388    0.4202    0.0000 C   0  0  0  0  0  0  0  0  0  0  0  0
  1  2  1  0
  2 14  2  0
  2  3  1  0
  3  4  2  0
  4  5  1  0
  5  6  1  0
  6 11  1  0
  6  7  2  0
  7  8  1  0
  8  9  2  0
  9 10  1  0
 10 11  2  0
  4 12  1  0
 12 13  2  0
 13 14  1  0
 13 15  1  0
 15 28  1  0
 15 16  1  0
 16 17  1  0
 17 18  1  0
 18 19  1  0
 19 20  1  0
 20 21  1  0
 21 22  2  0
 21 23  1  0
 23 27  1  0
 23 24  1  0
 24 25  1  0
 25 26  1  0
 26 27  1  0
 19 28  1  0
M  END
>  <SMILES>  (123) 
Cc1cc(Nc2cnccn2)cc(C2CCCN(CC(=O)N3CCCC3)C2)n1

>  <CollectionName>  (123) 
emolecules

>  <LOG PLASMA PROTEIN BINDING (RAT) (% unbound)>  (123) 
1.63241679664

>  <Internal ID>  (123) 
Mol123

>  <Source>  (123) 
Biogen

$$$$
198953
     RDKit          2D

 29 32  0  0  0  0  0  0  0  0999 V2000
    4.9707    0.7764    0.0000 C   0  0  0  0  0  0  0  0  0  0  0  0
    5.3836    0.0598    0.0000 C   0  0  0  0  0  0  0  0  0  0  0  0
    6.2106    0.0591    0.0000 C   0  0  0  0  0  0  0  0  0  0  0  0
    6.6235   -0.6574    0.0000 C   0  0  0  0  0  0  0  0  0  0  0  0
    6.2094   -1.3733    0.0000 C   0  0  0  0  0  0  0  0  0  0  0  0
    5.3824   -1.3726    0.0000 N   0  0  0  0  0  0  0  0  0  0  0  0
    4.9695   -0.6560    0.0000 C   0  0  0  0  0  0  0  0  0  0  0  0
    4.1425   -0.6553    0.0000 N   0  0  0  0  0  0  0  0  0  0  0  0
    3.7284   -1.3711    0.0000 C   0  0  0  0  0  0  0  0  0  0  0  0
    4.1425   -2.0870    0.0000 C   0  0  0  0  0  0  0  0  0  0  0  0
    3.7284   -2.8028    0.0000 C   0  0  0  0  0  0  0  0  0  0  0  0
    2.9001   -2.8028    0.0000 C   0  0  0  0  0  0  0  0  0  0  0  0
    2.4860   -2.0870    0.0000 C   0  0  0  0  0  0  0  0  0  0  0  0
    2.9001   -1.3711    0.0000 N   0  0  0  0  0  0  0  0  0  0  0  0
    1.6577   -2.0870    0.0000 C   0  0  0  0  0  0  0  0  0  0  0  0
    1.2436   -2.8028    0.0000 C   0  0  0  0  0  0  0  0  0  0  0  0
    0.4154   -2.8028    0.0000 C   0  0  0  0  0  0  0  0  0  0  0  0
    0.0012   -2.0870    0.0000 C   0  0  0  0  0  0  0  0  0  0  0  0
    0.4154   -1.3711    0.0000 N   0  0  0  0  0  0  0  0  0  0  0  0
    0.0012   -0.6553    0.0000 C   0  0  0  0  0  0  0  0  0  0  0  0
    0.4141    0.0613    0.0000 C   0  0  0  0  0  0  0  0  0  0  0  0
    1.2411    0.0620    0.0000 O   0  0  0  0  0  0  0  0  0  0  0  0
    0.0000    0.7771    0.0000 N   0  0  0  0  0  0  0  0  0  0  0  0
    0.4129    1.4937    0.0000 C   0  0  0  0  0  0  0  0  0  0  0  0
    0.0758    2.2489    0.0000 N   0  0  0  0  0  0  0  0  0  0  0  0
    0.6899    2.8028    0.0000 C   0  0  0  0  0  0  0  0  0  0  0  0
    1.4065    2.3899    0.0000 C   0  0  0  0  0  0  0  0  0  0  0  0
    1.2353    1.5809    0.0000 S   0  0  0  0  0  0  0  0  0  0  0  0
    1.2436   -1.3711    0.0000 C   0  0  0  0  0  0  0  0  0  0  0  0
  1  2  1  0
  2  7  2  0
  2  3  1  0
  3  4  2  0
  4  5  1  0
  5  6  2  0
  6  7  1  0
  7  8  1  0
  8  9  1  0
  9 14  1  0
  9 10  2  0
 10 11  1  0
 11 12  2  0
 12 13  1  0
 13 14  2  0
 13 15  1  0
 15 29  1  0
 15 16  1  0
 16 17  1  0
 17 18  1  0
 18 19  1  0
 19 20  1  0
 20 21  1  0
 21 22  2  0
 21 23  1  0
 23 24  1  0
 24 28  1  0
 24 25  2  0
 25 26  1  0
 26 27  2  0
 27 28  1  0
 19 29  1  0
M  END
>  <SMILES>  (124) 
Cc1cccnc1Nc1cccc(C2CCCN(CC(=O)Nc3nccs3)C2)n1

>  <CollectionName>  (124) 
emolecules

>  <LOG PLASMA PROTEIN BINDING (RAT) (% unbound)>  (124) 
0.637289547678

>  <Internal ID>  (124) 
Mol124

>  <Source>  (124) 
Biogen

$$$$
139135
     RDKit          2D

 32 35  0  0  0  0  0  0  0  0999 V2000
    0.8295    0.6206    0.0000 C   0  0  0  0  0  0  0  0  0  0  0  0
    1.6565    0.6213    0.0000 N   0  0  0  0  0  0  0  0  0  0  0  0
    2.0694    1.3379    0.0000 C   0  0  0  0  0  0  0  0  0  0  0  0
    2.0706   -0.0945    0.0000 C   0  0  0  0  0  0  0  0  0  0  0  0
    1.6577   -0.8111    0.0000 O   0  0  0  0  0  0  0  0  0  0  0  0
    2.8976   -0.0938    0.0000 C   0  0  0  0  0  0  0  0  0  0  0  0
    2.4847   -0.8104    0.0000 C   0  0  0  0  0  0  0  0  0  0  0  0
    2.8989   -1.5262    0.0000 C   0  0  0  0  0  0  0  0  0  0  0  0
    3.7271   -1.5262    0.0000 C   0  0  0  0  0  0  0  0  0  0  0  0
    4.1412   -2.2421    0.0000 C   0  0  0  0  0  0  0  0  0  0  0  0
    3.7271   -2.9579    0.0000 C   0  0  0  0  0  0  0  0  0  0  0  0
    2.8989   -2.9579    0.0000 C   0  0  0  0  0  0  0  0  0  0  0  0
    2.4847   -2.2421    0.0000 C   0  0  0  0  0  0  0  0  0  0  0  0
    1.6565   -2.2421    0.0000 C   0  0  0  0  0  0  0  0  0  0  0  0
    1.2424   -2.9579    0.0000 C   0  0  0  0  0  0  0  0  0  0  0  0
    0.4141   -2.9579    0.0000 C   0  0  0  0  0  0  0  0  0  0  0  0
    0.0000   -2.2421    0.0000 C   0  0  0  0  0  0  0  0  0  0  0  0
    0.4141   -1.5262    0.0000 C   0  0  0  0  0  0  0  0  0  0  0  0
    1.2424   -1.5262    0.0000 C   0  0  0  0  0  0  0  0  0  0  0  0
    2.4835    0.6220    0.0000 C   0  0  0  0  0  0  0  0  0  0  0  0
    2.8964    1.3386    0.0000 C   0  0  0  0  0  0  0  0  0  0  0  0
    3.7234    1.3393    0.0000 N   0  0  0  0  0  0  0  0  0  0  0  0
    4.1375    0.6235    0.0000 C   0  0  0  0  0  0  0  0  0  0  0  0
    3.7246   -0.0931    0.0000 C   0  0  0  0  0  0  0  0  0  0  0  0
    4.1362    2.0559    0.0000 C   0  0  0  0  0  0  0  0  0  0  0  0
    3.7221    2.7717    0.0000 O   0  0  0  0  0  0  0  0  0  0  0  0
    4.9632    2.0566    0.0000 C   0  0  0  0  0  0  0  0  0  0  0  0
    5.4499    1.3880    0.0000 C   0  0  0  0  0  0  0  0  0  0  0  0
    6.2362    1.6442    0.0000 N   0  0  0  0  0  0  0  0  0  0  0  0
    6.2355    2.4712    0.0000 N   0  0  0  0  0  0  0  0  0  0  0  0
    6.9041    2.9579    0.0000 C   0  0  0  0  0  0  0  0  0  0  0  0
    5.4488    2.7261    0.0000 C   0  0  0  0  0  0  0  0  0  0  0  0
  1  2  1  0
  2  3  1  0
  2  4  1  0
  4  5  2  0
  4  6  1  0
  6 24  1  0
  6  7  1  0
  7  8  1  0
  8 13  1  0
  8  9  2  0
  9 10  1  0
 10 11  2  0
 11 12  1  0
 12 13  2  0
 13 14  1  0
 14 19  1  0
 14 15  2  0
 15 16  1  0
 16 17  2  0
 17 18  1  0
 18 19  2  0
  6 20  1  0
 20 21  1  0
 21 22  1  0
 22 23  1  0
 23 24  1  0
 22 25  1  0
 25 26  2  0
 25 27  1  0
 27 32  2  0
 27 28  1  0
 28 29  2  0
 29 30  1  0
 30 31  1  0
 30 32  1  0
M  END
>  <SMILES>  (125) 
CN(C)C(=O)C1(Cc2ccccc2-c2ccccc2)CCN(C(=O)c2cnn(C)c2)CC1

>  <CollectionName>  (125) 
emolecules

>  <LOG PLASMA PROTEIN BINDING (RAT) (% unbound)>  (125) 
1.14684093404

>  <Internal ID>  (125) 
Mol125

>  <Source>  (125) 
Biogen

$$$$
2566233
     RDKit          2D

 21 23  0  0  0  0  0  0  0  0999 V2000
    1.7351    2.4256    0.0000 C   0  0  0  0  0  0  0  0  0  0  0  0
    2.1486    1.7094    0.0000 C   0  0  0  0  0  0  0  0  0  0  0  0
    2.5621    2.4256    0.0000 C   0  0  0  0  0  0  0  0  0  0  0  0
    2.8648    1.2959    0.0000 C   0  0  0  0  0  0  0  0  0  0  0  0
    2.8648    0.4689    0.0000 C   0  0  0  0  0  0  0  0  0  0  0  0
    3.5810    0.0554    0.0000 O   0  0  0  0  0  0  0  0  0  0  0  0
    2.1486    0.0554    0.0000 C   0  0  0  0  0  0  0  0  0  0  0  0
    1.4324    0.4689    0.0000 C   0  0  0  0  0  0  0  0  0  0  0  0
    1.4324    1.2959    0.0000 C   0  0  0  0  0  0  0  0  0  0  0  0
    0.7162    0.0554    0.0000 N   0  0  0  0  0  0  0  0  0  0  0  0
    0.7162   -0.7716    0.0000 C   0  0  0  0  0  0  0  0  0  0  0  0
    0.0000   -1.1851    0.0000 O   0  0  0  0  0  0  0  0  0  0  0  0
    1.4324   -1.1851    0.0000 C   0  0  0  0  0  0  0  0  0  0  0  0
    2.1486   -0.7716    0.0000 C   0  0  0  0  0  0  0  0  0  0  0  0
    2.8648   -1.1851    0.0000 C   0  0  0  0  0  0  0  0  0  0  0  0
    2.8648   -2.0121    0.0000 C   0  0  0  0  0  0  0  0  0  0  0  0
    3.5810   -2.4256    0.0000 C   0  0  0  0  0  0  0  0  0  0  0  0
    4.2972   -2.0121    0.0000 C   0  0  0  0  0  0  0  0  0  0  0  0
    5.0134   -2.4256    0.0000 Br  0  0  0  0  0  0  0  0  0  0  0  0
    4.2972   -1.1851    0.0000 C   0  0  0  0  0  0  0  0  0  0  0  0
    3.5810   -0.7716    0.0000 C   0  0  0  0  0  0  0  0  0  0  0  0
  1  2  1  0
  2  9  1  0
  2  3  1  0
  2  4  1  0
  4  5  1  0
  5  6  2  0
  5  7  1  0
  7 14  1  0
  7  8  2  0
  8  9  1  0
  8 10  1  0
 10 11  1  0
 11 12  2  0
 11 13  1  0
 13 14  1  0
 14 15  1  0
 15 21  1  0
 15 16  2  0
 16 17  1  0
 17 18  2  0
 18 19  1  0
 18 20  1  0
 20 21  2  0
M  END
>  <SMILES>  (126) 
CC1(C)CC(=O)C2=C(C1)NC(=O)CC2c1ccc(Br)cc1

>  <CollectionName>  (126) 
emolecules

>  <LOG PLASMA PROTEIN BINDING (RAT) (% unbound)>  (126) 
0.944630701856

>  <Internal ID>  (126) 
Mol126

>  <Source>  (126) 
Biogen

$$$$
49383448
     RDKit          2D

 32 35  0  0  0  0  0  0  0  0999 V2000
    9.5186   -1.7347    0.0000 C   0  0  0  0  0  0  0  0  0  0  0  0
    8.6916   -1.7347    0.0000 N   0  0  0  0  0  0  0  0  0  0  0  0
    8.2781   -2.4510    0.0000 C   0  0  0  0  0  0  0  0  0  0  0  0
    7.4511   -2.4510    0.0000 C   0  0  0  0  0  0  0  0  0  0  0  0
    7.0376   -1.7347    0.0000 N   0  0  0  0  0  0  0  0  0  0  0  0
    7.4511   -1.0185    0.0000 C   0  0  0  0  0  0  0  0  0  0  0  0
    8.2781   -1.0185    0.0000 C   0  0  0  0  0  0  0  0  0  0  0  0
    6.2106   -1.7347    0.0000 S   0  0  0  0  0  0  0  0  0  0  0  0
    6.2106   -2.5617    0.0000 O   0  0  0  0  0  0  0  0  0  0  0  0
    6.2106   -0.9077    0.0000 O   0  0  0  0  0  0  0  0  0  0  0  0
    5.3836   -1.7347    0.0000 C   0  0  0  0  0  0  0  0  0  0  0  0
    4.9695   -2.4506    0.0000 C   0  0  0  0  0  0  0  0  0  0  0  0
    4.1412   -2.4506    0.0000 C   0  0  0  0  0  0  0  0  0  0  0  0
    3.7271   -1.7347    0.0000 C   0  0  0  0  0  0  0  0  0  0  0  0
    4.1412   -1.0189    0.0000 C   0  0  0  0  0  0  0  0  0  0  0  0
    4.9695   -1.0189    0.0000 C   0  0  0  0  0  0  0  0  0  0  0  0
    2.8989   -1.7347    0.0000 C   0  0  0  0  0  0  0  0  0  0  0  0
    2.4847   -2.4506    0.0000 C   0  0  0  0  0  0  0  0  0  0  0  0
    1.6565   -2.4506    0.0000 N   0  0  0  0  0  0  0  0  0  0  0  0
    1.2424   -1.7347    0.0000 C   0  0  0  0  0  0  0  0  0  0  0  0
    0.4154   -1.7347    0.0000 N   0  0  0  0  0  0  0  0  0  0  0  0
    1.6565   -1.0189    0.0000 C   0  0  0  0  0  0  0  0  0  0  0  0
    2.4847   -1.0189    0.0000 N   0  0  0  0  0  0  0  0  0  0  0  0
    1.2424   -0.3031    0.0000 C   0  0  0  0  0  0  0  0  0  0  0  0
    0.4154   -0.3038    0.0000 O   0  0  0  0  0  0  0  0  0  0  0  0
    1.6552    0.4135    0.0000 N   0  0  0  0  0  0  0  0  0  0  0  0
    1.2411    1.1293    0.0000 C   0  0  0  0  0  0  0  0  0  0  0  0
    0.4141    1.1286    0.0000 C   0  0  0  0  0  0  0  0  0  0  0  0
    0.0000    1.8445    0.0000 C   0  0  0  0  0  0  0  0  0  0  0  0
    0.4129    2.5610    0.0000 C   0  0  0  0  0  0  0  0  0  0  0  0
    1.2399    2.5617    0.0000 N   0  0  0  0  0  0  0  0  0  0  0  0
    1.6540    1.8459    0.0000 C   0  0  0  0  0  0  0  0  0  0  0  0
  1  2  1  0
  2  7  1  0
  2  3  1  0
  3  4  1  0
  4  5  1  0
  5  6  1  0
  6  7  1  0
  5  8  1  0
  8  9  2  0
  8 10  2  0
  8 11  1  0
 11 16  1  0
 11 12  2  0
 12 13  1  0
 13 14  2  0
 14 15  1  0
 15 16  2  0
 14 17  1  0
 17 23  1  0
 17 18  2  0
 18 19  1  0
 19 20  2  0
 20 21  1  0
 20 22  1  0
 22 23  2  0
 22 24  1  0
 24 25  2  0
 24 26  1  0
 26 27  1  0
 27 32  1  0
 27 28  2  0
 28 29  1  0
 29 30  2  0
 30 31  1  0
 31 32  2  0
M  END
>  <SMILES>  (127) 
CN1CCN(S(=O)(=O)c2ccc(-c3cnc(N)c(C(=O)Nc4cccnc4)n3)cc2)CC1

>  <CollectionName>  (127) 
emolecules

>  <LOG PLASMA PROTEIN BINDING (RAT) (% unbound)>  (127) 
0.915558115412

>  <Internal ID>  (127) 
Mol127

>  <Source>  (127) 
Biogen

$$$$
393410
     RDKit          2D

 30 33  0  0  0  0  0  0  0  0999 V2000
    6.8769   -2.7617    0.0000 C   0  0  0  0  0  0  0  0  0  0  0  0
    6.5406   -2.0062    0.0000 N   0  0  0  0  0  0  0  0  0  0  0  0
    5.7181   -1.9198    0.0000 C   0  0  0  0  0  0  0  0  0  0  0  0
    5.2320   -2.5888    0.0000 O   0  0  0  0  0  0  0  0  0  0  0  0
    5.3817   -1.1643    0.0000 C   0  0  0  0  0  0  0  0  0  0  0  0
    4.9682   -1.8805    0.0000 C   0  0  0  0  0  0  0  0  0  0  0  0
    4.1412   -1.8805    0.0000 C   0  0  0  0  0  0  0  0  0  0  0  0
    3.7271   -1.1646    0.0000 C   0  0  0  0  0  0  0  0  0  0  0  0
    2.8989   -1.1646    0.0000 C   0  0  0  0  0  0  0  0  0  0  0  0
    2.4847   -1.8805    0.0000 C   0  0  0  0  0  0  0  0  0  0  0  0
    2.8989   -2.5963    0.0000 C   0  0  0  0  0  0  0  0  0  0  0  0
    3.7271   -2.5963    0.0000 C   0  0  0  0  0  0  0  0  0  0  0  0
    1.6565   -1.8805    0.0000 C   0  0  0  0  0  0  0  0  0  0  0  0
    1.2424   -2.5963    0.0000 C   0  0  0  0  0  0  0  0  0  0  0  0
    0.4141   -2.5963    0.0000 C   0  0  0  0  0  0  0  0  0  0  0  0
    0.0000   -1.8805    0.0000 C   0  0  0  0  0  0  0  0  0  0  0  0
    0.4141   -1.1646    0.0000 N   0  0  0  0  0  0  0  0  0  0  0  0
    1.2424   -1.1646    0.0000 C   0  0  0  0  0  0  0  0  0  0  0  0
    6.2042   -1.0778    0.0000 C   0  0  0  0  0  0  0  0  0  0  0  0
    6.3762   -0.2689    0.0000 C   0  0  0  0  0  0  0  0  0  0  0  0
    5.6599    0.1446    0.0000 N   0  0  0  0  0  0  0  0  0  0  0  0
    5.5735    0.9671    0.0000 C   0  0  0  0  0  0  0  0  0  0  0  0
    6.2426    1.4532    0.0000 C   0  0  0  0  0  0  0  0  0  0  0  0
    6.9981    1.1168    0.0000 C   0  0  0  0  0  0  0  0  0  0  0  0
    7.6671    1.6029    0.0000 C   0  0  0  0  0  0  0  0  0  0  0  0
    7.5807    2.4254    0.0000 C   0  0  0  0  0  0  0  0  0  0  0  0
    6.8252    2.7617    0.0000 C   0  0  0  0  0  0  0  0  0  0  0  0
    6.1561    2.2756    0.0000 C   0  0  0  0  0  0  0  0  0  0  0  0
    5.4006    2.6120    0.0000 Cl  0  0  0  0  0  0  0  0  0  0  0  0
    5.0454   -0.4088    0.0000 C   0  0  0  0  0  0  0  0  0  0  0  0
  1  2  1  0
  2  3  1  0
  3  4  2  0
  3  5  1  0
  5 30  1  0
  5  6  1  0
  6  7  1  0
  7 12  1  0
  7  8  2  0
  8  9  1  0
  9 10  2  0
 10 11  1  0
 11 12  2  0
 10 13  1  0
 13 18  1  0
 13 14  2  0
 14 15  1  0
 15 16  2  0
 16 17  1  0
 17 18  2  0
  5 19  1  0
 19 20  1  0
 20 21  1  0
 21 22  1  0
 22 23  1  0
 23 28  1  0
 23 24  2  0
 24 25  1  0
 25 26  2  0
 26 27  1  0
 27 28  2  0
 28 29  1  0
 21 30  1  0
M  END
>  <SMILES>  (128) 
CNC(=O)C1(Cc2ccc(-c3cccnc3)cc2)CCN(Cc2ccccc2Cl)C1

>  <CollectionName>  (128) 
emolecules

>  <LOG PLASMA PROTEIN BINDING (RAT) (% unbound)>  (128) 
0.27369558793

>  <Internal ID>  (128) 
Mol128

>  <Source>  (128) 
Biogen

$$$$
176509
     RDKit          2D

 24 26  0  0  0  0  0  0  0  0999 V2000
   -3.9719    1.2834    0.0000 C   0  0  0  0  0  0  0  0  0  0  0  0
   -3.1449    1.2834    0.0000 C   0  0  0  0  0  0  0  0  0  0  0  0
   -2.7314    1.9996    0.0000 C   0  0  0  0  0  0  0  0  0  0  0  0
   -1.9044    1.9996    0.0000 C   0  0  0  0  0  0  0  0  0  0  0  0
   -1.4909    1.2834    0.0000 N   0  0  0  0  0  0  0  0  0  0  0  0
   -1.9044    0.5672    0.0000 C   0  0  0  0  0  0  0  0  0  0  0  0
   -2.7314    0.5672    0.0000 N   0  0  0  0  0  0  0  0  0  0  0  0
   -1.4909    2.7158    0.0000 N   0  0  0  0  0  0  0  0  0  0  0  0
   -1.8272    3.4713    0.0000 C   0  0  0  0  0  0  0  0  0  0  0  0
   -1.2127    4.0246    0.0000 C   0  0  0  0  0  0  0  0  0  0  0  0
   -0.4965    3.6111    0.0000 C   0  0  0  0  0  0  0  0  0  0  0  0
   -0.6684    2.8022    0.0000 C   0  0  0  0  0  0  0  0  0  0  0  0
   -0.1150    2.1876    0.0000 C   0  0  0  0  0  0  0  0  0  0  0  0
    0.6939    2.3596    0.0000 C   0  0  0  0  0  0  0  0  0  0  0  0
    1.2473    1.7450    0.0000 C   0  0  0  0  0  0  0  0  0  0  0  0
    2.0562    1.9169    0.0000 C   0  0  0  0  0  0  0  0  0  0  0  0
    2.6096    1.3024    0.0000 C   0  0  0  0  0  0  0  0  0  0  0  0
    3.4185    1.4743    0.0000 C   0  0  0  0  0  0  0  0  0  0  0  0
    3.9719    0.8597    0.0000 O   0  0  0  0  0  0  0  0  0  0  0  0
    3.6741    2.2608    0.0000 O   0  0  0  0  0  0  0  0  0  0  0  0
    0.9917    0.9585    0.0000 C   0  0  0  0  0  0  0  0  0  0  0  0
    0.1828    0.7865    0.0000 C   0  0  0  0  0  0  0  0  0  0  0  0
   -0.0728    0.0000    0.0000 C   0  0  0  0  0  0  0  0  0  0  0  0
   -0.3706    1.4011    0.0000 N   0  0  0  0  0  0  0  0  0  0  0  0
  1  2  1  0
  2  7  2  0
  2  3  1  0
  3  4  2  0
  4  5  1  0
  5  6  2  0
  6  7  1  0
  4  8  1  0
  8 12  1  0
  8  9  1  0
  9 10  1  0
 10 11  1  0
 11 12  1  0
 12 13  1  0
 13 24  1  0
 13 14  2  0
 14 15  1  0
 15 16  1  0
 16 17  1  0
 17 18  1  0
 18 19  1  0
 18 20  2  0
 15 21  2  0
 21 22  1  0
 22 23  1  0
 22 24  2  0
M  END
>  <SMILES>  (129) 
Cc1cc(N2CCCC2c2cc(CCC(=O)O)cc(C)n2)ncn1

>  <CollectionName>  (129) 
emolecules

>  <LOG PLASMA PROTEIN BINDING (RAT) (% unbound)>  (129) 
2.0

>  <Internal ID>  (129) 
Mol129

>  <Source>  (129) 
Biogen

$$$$
535781
     RDKit          2D

 17 17  0  0  0  0  0  0  0  0999 V2000
   -3.5148    0.0000    0.0000 C   0  0  0  0  0  0  0  0  0  0  0  0
   -3.1012    0.7162    0.0000 C   0  0  0  0  0  0  0  0  0  0  0  0
   -2.2743    0.7162    0.0000 C   0  0  0  0  0  0  0  0  0  0  0  0
   -1.8607    1.4324    0.0000 N   0  0  0  0  0  0  0  0  0  0  0  0
   -1.0338    1.4324    0.0000 C   0  0  0  0  0  0  0  0  0  0  0  0
   -0.6202    0.7162    0.0000 O   0  0  0  0  0  0  0  0  0  0  0  0
   -0.6202    2.1486    0.0000 N   0  0  0  0  0  0  0  0  0  0  0  0
    0.2068    2.1486    0.0000 S   0  0  0  0  0  0  0  0  0  0  0  0
    0.2068    2.9756    0.0000 O   0  0  0  0  0  0  0  0  0  0  0  0
    0.2068    1.3216    0.0000 O   0  0  0  0  0  0  0  0  0  0  0  0
    1.0338    2.1486    0.0000 C   0  0  0  0  0  0  0  0  0  0  0  0
    1.4473    2.8648    0.0000 C   0  0  0  0  0  0  0  0  0  0  0  0
    2.2743    2.8648    0.0000 C   0  0  0  0  0  0  0  0  0  0  0  0
    2.6878    2.1486    0.0000 C   0  0  0  0  0  0  0  0  0  0  0  0
    3.5148    2.1486    0.0000 Cl  0  0  0  0  0  0  0  0  0  0  0  0
    2.2743    1.4324    0.0000 C   0  0  0  0  0  0  0  0  0  0  0  0
    1.4473    1.4324    0.0000 C   0  0  0  0  0  0  0  0  0  0  0  0
  1  2  1  0
  2  3  1  0
  3  4  1  0
  4  5  1  0
  5  6  2  0
  5  7  1  0
  7  8  1  0
  8  9  2  0
  8 10  2  0
  8 11  1  0
 11 17  2  0
 11 12  1  0
 12 13  2  0
 13 14  1  0
 14 15  1  0
 14 16  2  0
 16 17  1  0
M  END
>  <SMILES>  (130) 
CCCNC(=O)NS(=O)(=O)c1ccc(Cl)cc1

>  <CollectionName>  (130) 
emolecules

>  <LOG PLASMA PROTEIN BINDING (RAT) (% unbound)>  (130) 
0.62828673109

>  <Internal ID>  (130) 
Mol130

>  <Source>  (130) 
Biogen

$$$$
150211
     RDKit          2D

 28 31  0  0  0  0  0  0  0  0999 V2000
    7.6199    1.1335    0.0000 F   0  0  0  0  0  0  0  0  0  0  0  0
    7.2058    0.4176    0.0000 C   0  0  0  0  0  0  0  0  0  0  0  0
    7.6187   -0.2989    0.0000 C   0  0  0  0  0  0  0  0  0  0  0  0
    7.2046   -1.0148    0.0000 C   0  0  0  0  0  0  0  0  0  0  0  0
    6.3776   -1.0140    0.0000 C   0  0  0  0  0  0  0  0  0  0  0  0
    5.9647   -0.2975    0.0000 C   0  0  0  0  0  0  0  0  0  0  0  0
    5.1377   -0.2968    0.0000 C   0  0  0  0  0  0  0  0  0  0  0  0
    4.7236   -1.0126    0.0000 C   0  0  0  0  0  0  0  0  0  0  0  0
    5.1377   -1.7284    0.0000 C   0  0  0  0  0  0  0  0  0  0  0  0
    4.7236   -2.4443    0.0000 C   0  0  0  0  0  0  0  0  0  0  0  0
    3.8953   -2.4443    0.0000 C   0  0  0  0  0  0  0  0  0  0  0  0
    3.4812   -1.7284    0.0000 C   0  0  0  0  0  0  0  0  0  0  0  0
    3.8953   -1.0126    0.0000 N   0  0  0  0  0  0  0  0  0  0  0  0
    2.6529   -1.7284    0.0000 C   0  0  0  0  0  0  0  0  0  0  0  0
    2.2388   -2.4443    0.0000 C   0  0  0  0  0  0  0  0  0  0  0  0
    1.4106   -2.4443    0.0000 C   0  0  0  0  0  0  0  0  0  0  0  0
    0.9964   -1.7284    0.0000 C   0  0  0  0  0  0  0  0  0  0  0  0
    1.4106   -1.0126    0.0000 N   0  0  0  0  0  0  0  0  0  0  0  0
    0.9964   -0.2968    0.0000 C   0  0  0  0  0  0  0  0  0  0  0  0
    1.4093    0.4198    0.0000 C   0  0  0  0  0  0  0  0  0  0  0  0
    2.2363    0.4205    0.0000 O   0  0  0  0  0  0  0  0  0  0  0  0
    0.9952    1.1357    0.0000 N   0  0  0  0  0  0  0  0  0  0  0  0
    0.1726    1.2214    0.0000 C   0  0  0  0  0  0  0  0  0  0  0  0
    0.0000    2.0302    0.0000 C   0  0  0  0  0  0  0  0  0  0  0  0
    0.7158    2.4443    0.0000 C   0  0  0  0  0  0  0  0  0  0  0  0
    1.3309    1.8914    0.0000 C   0  0  0  0  0  0  0  0  0  0  0  0
    2.2388   -1.0126    0.0000 C   0  0  0  0  0  0  0  0  0  0  0  0
    6.3788    0.4184    0.0000 C   0  0  0  0  0  0  0  0  0  0  0  0
  1  2  1  0
  2 28  2  0
  2  3  1  0
  3  4  2  0
  4  5  1  0
  5  6  2  0
  6  7  1  0
  7  8  1  0
  8 13  1  0
  8  9  2  0
  9 10  1  0
 10 11  2  0
 11 12  1  0
 12 13  2  0
 12 14  1  0
 14 27  1  0
 14 15  1  0
 15 16  1  0
 16 17  1  0
 17 18  1  0
 18 19  1  0
 19 20  1  0
 20 21  2  0
 20 22  1  0
 22 26  1  0
 22 23  1  0
 23 24  1  0
 24 25  1  0
 25 26  1  0
 18 27  1  0
  6 28  1  0
M  END
>  <SMILES>  (131) 
O=C(CN1CCCC(c2cccc(Cc3cccc(F)c3)n2)C1)N1CCCC1

>  <CollectionName>  (131) 
emolecules

>  <LOG PLASMA PROTEIN BINDING (RAT) (% unbound)>  (131) 
0.953856298225

>  <Internal ID>  (131) 
Mol131

>  <Source>  (131) 
Biogen

$$$$
32232846
     RDKit          2D

 22 24  0  0  0  0  0  0  0  0999 V2000
    0.7173    2.8906    0.0000 C   0  0  0  0  0  0  0  0  0  0  0  0
    0.7166    2.0636    0.0000 O   0  0  0  0  0  0  0  0  0  0  0  0
    1.4324    1.6495    0.0000 C   0  0  0  0  0  0  0  0  0  0  0  0
    2.1482    2.0636    0.0000 C   0  0  0  0  0  0  0  0  0  0  0  0
    2.8641    1.6495    0.0000 C   0  0  0  0  0  0  0  0  0  0  0  0
    3.5859    2.0636    0.0000 N   0  0  0  0  0  0  0  0  0  0  0  0
    4.3017    1.6495    0.0000 C   0  0  0  0  0  0  0  0  0  0  0  0
    4.3017    0.8212    0.0000 N   0  0  0  0  0  0  0  0  0  0  0  0
    3.5859    0.4071    0.0000 C   0  0  0  0  0  0  0  0  0  0  0  0
    3.5918   -0.4199    0.0000 N   0  0  0  0  0  0  0  0  0  0  0  0
    4.3109   -0.8283    0.0000 C   0  0  0  0  0  0  0  0  0  0  0  0
    5.0241   -0.4097    0.0000 C   0  0  0  0  0  0  0  0  0  0  0  0
    5.7433   -0.8180    0.0000 C   0  0  0  0  0  0  0  0  0  0  0  0
    5.7492   -1.6450    0.0000 C   0  0  0  0  0  0  0  0  0  0  0  0
    5.0359   -2.0636    0.0000 C   0  0  0  0  0  0  0  0  0  0  0  0
    5.0419   -2.8906    0.0000 O   0  0  0  0  0  0  0  0  0  0  0  0
    4.3168   -1.6552    0.0000 C   0  0  0  0  0  0  0  0  0  0  0  0
    2.8641    0.8212    0.0000 C   0  0  0  0  0  0  0  0  0  0  0  0
    2.1482    0.4071    0.0000 C   0  0  0  0  0  0  0  0  0  0  0  0
    1.4324    0.8212    0.0000 C   0  0  0  0  0  0  0  0  0  0  0  0
    0.7166    0.4071    0.0000 O   0  0  0  0  0  0  0  0  0  0  0  0
    0.0000    0.8200    0.0000 C   0  0  0  0  0  0  0  0  0  0  0  0
  1  2  1  0
  2  3  1  0
  3 20  2  0
  3  4  1  0
  4  5  2  0
  5 18  1  0
  5  6  1  0
  6  7  2  0
  7  8  1  0
  8  9  2  0
  9 10  1  0
 10 11  1  0
 11 17  1  0
 11 12  2  0
 12 13  1  0
 13 14  2  0
 14 15  1  0
 15 16  1  0
 15 17  2  0
  9 18  1  0
 18 19  2  0
 19 20  1  0
 20 21  1  0
 21 22  1  0
M  END
>  <SMILES>  (132) 
COc1cc2ncnc(Nc3cccc(O)c3)c2cc1OC

>  <CollectionName>  (132) 
emolecules

>  <LOG PLASMA PROTEIN BINDING (RAT) (% unbound)>  (132) 
0.650307523132

>  <Internal ID>  (132) 
Mol132

>  <Source>  (132) 
Biogen

$$$$
6795908
     RDKit          2D

 23 25  0  0  0  0  0  0  0  0999 V2000
    0.0000    2.2046    0.0000 C   0  0  0  0  0  0  0  0  0  0  0  0
    0.7158    1.7905    0.0000 C   0  0  0  0  0  0  0  0  0  0  0  0
    0.7158    0.9623    0.0000 C   0  0  0  0  0  0  0  0  0  0  0  0
    1.4317    0.5481    0.0000 C   0  0  0  0  0  0  0  0  0  0  0  0
    1.4317   -0.2789    0.0000 C   0  0  0  0  0  0  0  0  0  0  0  0
    2.1475    0.9623    0.0000 C   0  0  0  0  0  0  0  0  0  0  0  0
    2.9344    0.7079    0.0000 C   0  0  0  0  0  0  0  0  0  0  0  0
    3.1868   -0.0797    0.0000 N   0  0  0  0  0  0  0  0  0  0  0  0
    3.4254    1.3764    0.0000 C   0  0  0  0  0  0  0  0  0  0  0  0
    2.9344    2.0449    0.0000 S   0  0  0  0  0  0  0  0  0  0  0  0
    2.1475    1.7905    0.0000 C   0  0  0  0  0  0  0  0  0  0  0  0
    1.4317    2.2046    0.0000 N   0  0  0  0  0  0  0  0  0  0  0  0
    4.2524    1.3764    0.0000 C   0  0  0  0  0  0  0  0  0  0  0  0
    4.6659    2.0926    0.0000 O   0  0  0  0  0  0  0  0  0  0  0  0
    4.6659    0.6602    0.0000 N   0  0  0  0  0  0  0  0  0  0  0  0
    5.4929    0.6602    0.0000 C   0  0  0  0  0  0  0  0  0  0  0  0
    5.9064   -0.0560    0.0000 C   0  0  0  0  0  0  0  0  0  0  0  0
    6.7334   -0.0560    0.0000 C   0  0  0  0  0  0  0  0  0  0  0  0
    7.1469   -0.7722    0.0000 C   0  0  0  0  0  0  0  0  0  0  0  0
    6.7334   -1.4884    0.0000 C   0  0  0  0  0  0  0  0  0  0  0  0
    7.1469   -2.2046    0.0000 Cl  0  0  0  0  0  0  0  0  0  0  0  0
    5.9064   -1.4884    0.0000 C   0  0  0  0  0  0  0  0  0  0  0  0
    5.4929   -0.7722    0.0000 C   0  0  0  0  0  0  0  0  0  0  0  0
  1  2  1  0
  2 12  2  0
  2  3  1  0
  3  4  2  0
  4  5  1  0
  4  6  1  0
  6 11  2  0
  6  7  1  0
  7  8  1  0
  7  9  2  0
  9 10  1  0
 10 11  1  0
 11 12  1  0
  9 13  1  0
 13 14  2  0
 13 15  1  0
 15 16  1  0
 16 17  1  0
 17 23  1  0
 17 18  2  0
 18 19  1  0
 19 20  2  0
 20 21  1  0
 20 22  1  0
 22 23  2  0
M  END
>  <SMILES>  (133) 
Cc1cc(C)c2c(N)c(C(=O)NCc3ccc(Cl)cc3)sc2n1

>  <CollectionName>  (133) 
emolecules

>  <LOG PLASMA PROTEIN BINDING (RAT) (% unbound)>  (133) 
-0.185752404268

>  <Internal ID>  (133) 
Mol133

>  <Source>  (133) 
Biogen

$$$$
215355
     RDKit          2D

 19 20  0  0  0  0  0  0  0  0999 V2000
    7.4505    1.7882    0.0000 C   0  0  0  0  0  0  0  0  0  0  0  0
    6.6235    1.7889    0.0000 O   0  0  0  0  0  0  0  0  0  0  0  0
    6.2094    1.0730    0.0000 C   0  0  0  0  0  0  0  0  0  0  0  0
    5.3824    1.0738    0.0000 C   0  0  0  0  0  0  0  0  0  0  0  0
    4.9682    0.3579    0.0000 N   0  0  0  0  0  0  0  0  0  0  0  0
    4.1412    0.3586    0.0000 C   0  0  0  0  0  0  0  0  0  0  0  0
    3.7284    1.0752    0.0000 O   0  0  0  0  0  0  0  0  0  0  0  0
    3.7271   -0.3572    0.0000 C   0  0  0  0  0  0  0  0  0  0  0  0
    4.1412   -1.0730    0.0000 C   0  0  0  0  0  0  0  0  0  0  0  0
    3.7271   -1.7889    0.0000 C   0  0  0  0  0  0  0  0  0  0  0  0
    2.8989   -1.7889    0.0000 N   0  0  0  0  0  0  0  0  0  0  0  0
    2.4847   -1.0730    0.0000 C   0  0  0  0  0  0  0  0  0  0  0  0
    2.8989   -0.3572    0.0000 C   0  0  0  0  0  0  0  0  0  0  0  0
    1.6565   -1.0730    0.0000 C   0  0  0  0  0  0  0  0  0  0  0  0
    1.2424   -1.7889    0.0000 C   0  0  0  0  0  0  0  0  0  0  0  0
    0.4141   -1.7889    0.0000 C   0  0  0  0  0  0  0  0  0  0  0  0
    0.0000   -1.0730    0.0000 N   0  0  0  0  0  0  0  0  0  0  0  0
    0.4141   -0.3572    0.0000 C   0  0  0  0  0  0  0  0  0  0  0  0
    1.2424   -0.3572    0.0000 C   0  0  0  0  0  0  0  0  0  0  0  0
  1  2  1  0
  2  3  1  0
  3  4  1  0
  4  5  1  0
  5  6  1  0
  6  7  2  0
  6  8  1  0
  8 13  2  0
  8  9  1  0
  9 10  2  0
 10 11  1  0
 11 12  2  0
 12 13  1  0
 12 14  1  0
 14 19  1  0
 14 15  1  0
 15 16  1  0
 16 17  1  0
 17 18  1  0
 18 19  1  0
M  END
>  <SMILES>  (134) 
COCCNC(=O)c1ccnc(C2CCNCC2)c1

>  <CollectionName>  (134) 
emolecules

>  <LOG PLASMA PROTEIN BINDING (RAT) (% unbound)>  (134) 
2.0

>  <Internal ID>  (134) 
Mol134

>  <Source>  (134) 
Biogen

$$$$
28305598
     RDKit          2D

 20 22  0  0  0  0  0  0  0  0999 V2000
    0.0007    1.6552    0.0000 C   0  0  0  0  0  0  0  0  0  0  0  0
    0.0000    0.8282    0.0000 O   0  0  0  0  0  0  0  0  0  0  0  0
    0.7158    0.4141    0.0000 C   0  0  0  0  0  0  0  0  0  0  0  0
    1.4317    0.8282    0.0000 N   0  0  0  0  0  0  0  0  0  0  0  0
    2.1475    0.4141    0.0000 C   0  0  0  0  0  0  0  0  0  0  0  0
    2.9344    0.6685    0.0000 S   0  0  0  0  0  0  0  0  0  0  0  0
    3.4254    0.0000    0.0000 C   0  0  0  0  0  0  0  0  0  0  0  0
    4.2524    0.0000    0.0000 C   0  0  0  0  0  0  0  0  0  0  0  0
    4.6659    0.7162    0.0000 O   0  0  0  0  0  0  0  0  0  0  0  0
    4.6659   -0.7162    0.0000 N   0  0  0  0  0  0  0  0  0  0  0  0
    5.4929   -0.7162    0.0000 C   0  0  0  0  0  0  0  0  0  0  0  0
    6.2091   -0.3027    0.0000 C   0  0  0  0  0  0  0  0  0  0  0  0
    6.2091   -1.1297    0.0000 C   0  0  0  0  0  0  0  0  0  0  0  0
    2.9344   -0.6685    0.0000 C   0  0  0  0  0  0  0  0  0  0  0  0
    3.1868   -1.4561    0.0000 N   0  0  0  0  0  0  0  0  0  0  0  0
    2.1475   -0.4141    0.0000 C   0  0  0  0  0  0  0  0  0  0  0  0
    1.4317   -0.8282    0.0000 C   0  0  0  0  0  0  0  0  0  0  0  0
    1.4317   -1.6552    0.0000 C   0  0  0  0  0  0  0  0  0  0  0  0
    0.7158   -0.4141    0.0000 C   0  0  0  0  0  0  0  0  0  0  0  0
    0.0000   -0.8282    0.0000 Cl  0  0  0  0  0  0  0  0  0  0  0  0
  1  2  1  0
  2  3  1  0
  3 19  2  0
  3  4  1  0
  4  5  2  0
  5 16  1  0
  5  6  1  0
  6  7  1  0
  7  8  1  0
  8  9  2  0
  8 10  1  0
 10 11  1  0
 11 13  1  0
 11 12  1  0
 12 13  1  0
  7 14  2  0
 14 15  1  0
 14 16  1  0
 16 17  2  0
 17 18  1  0
 17 19  1  0
 19 20  1  0
M  END
>  <SMILES>  (135) 
COc1nc2sc(C(=O)NC3CC3)c(N)c2c(C)c1Cl

>  <CollectionName>  (135) 
emolecules

>  <LOG PLASMA PROTEIN BINDING (RAT) (% unbound)>  (135) 
0.452093249018

>  <Internal ID>  (135) 
Mol135

>  <Source>  (135) 
Biogen

$$$$
175109
     RDKit          2D

 22 24  0  0  0  0  0  0  0  0999 V2000
    5.7239   -1.7657    0.0000 C   0  0  0  0  0  0  0  0  0  0  0  0
    6.2094   -1.0962    0.0000 C   0  0  0  0  0  0  0  0  0  0  0  0
    5.3824   -1.0969    0.0000 C   0  0  0  0  0  0  0  0  0  0  0  0
    4.9682   -0.3811    0.0000 N   0  0  0  0  0  0  0  0  0  0  0  0
    4.1412   -0.3818    0.0000 C   0  0  0  0  0  0  0  0  0  0  0  0
    3.7284   -1.0984    0.0000 O   0  0  0  0  0  0  0  0  0  0  0  0
    3.7271    0.3340    0.0000 C   0  0  0  0  0  0  0  0  0  0  0  0
    4.1412    1.0499    0.0000 C   0  0  0  0  0  0  0  0  0  0  0  0
    3.7271    1.7657    0.0000 N   0  0  0  0  0  0  0  0  0  0  0  0
    2.8989    1.7657    0.0000 C   0  0  0  0  0  0  0  0  0  0  0  0
    2.4847    1.0499    0.0000 C   0  0  0  0  0  0  0  0  0  0  0  0
    2.8989    0.3340    0.0000 N   0  0  0  0  0  0  0  0  0  0  0  0
    1.6565    1.0499    0.0000 C   0  0  0  0  0  0  0  0  0  0  0  0
    1.2424    0.3340    0.0000 C   0  0  0  0  0  0  0  0  0  0  0  0
    0.4141    0.3340    0.0000 C   0  0  0  0  0  0  0  0  0  0  0  0
    0.0000    1.0499    0.0000 N   0  0  0  0  0  0  0  0  0  0  0  0
    0.4141    1.7657    0.0000 C   0  0  0  0  0  0  0  0  0  0  0  0
    1.2424    1.7657    0.0000 C   0  0  0  0  0  0  0  0  0  0  0  0
    6.6960   -1.7649    0.0000 C   0  0  0  0  0  0  0  0  0  0  0  0
    7.4823   -1.5086    0.0000 C   0  0  0  0  0  0  0  0  0  0  0  0
    7.4816   -0.6816    0.0000 C   0  0  0  0  0  0  0  0  0  0  0  0
    6.6949   -0.4267    0.0000 O   0  0  0  0  0  0  0  0  0  0  0  0
  1  2  1  0
  2 22  1  0
  2  3  1  0
  3  4  1  0
  4  5  1  0
  5  6  2  0
  5  7  1  0
  7 12  1  0
  7  8  2  0
  8  9  1  0
  9 10  2  0
 10 11  1  0
 11 12  2  0
 11 13  1  0
 13 18  1  0
 13 14  1  0
 14 15  1  0
 15 16  1  0
 16 17  1  0
 17 18  1  0
  2 19  1  0
 19 20  1  0
 20 21  1  0
 21 22  1  0
M  END
>  <SMILES>  (136) 
CC1(CNC(=O)c2cncc(C3CCNCC3)n2)CCCO1

>  <CollectionName>  (136) 
emolecules

>  <LOG PLASMA PROTEIN BINDING (RAT) (% unbound)>  (136) 
1.96004245573

>  <Internal ID>  (136) 
Mol136

>  <Source>  (136) 
Biogen

$$$$
174073
     RDKit          2D

 19 21  0  0  0  0  0  0  0  0999 V2000
    5.1364    0.7774    0.0000 C   0  0  0  0  0  0  0  0  0  0  0  0
    4.7223    0.0615    0.0000 N   0  0  0  0  0  0  0  0  0  0  0  0
    5.1364   -0.6543    0.0000 C   0  0  0  0  0  0  0  0  0  0  0  0
    4.7223   -1.3702    0.0000 C   0  0  0  0  0  0  0  0  0  0  0  0
    3.8941   -1.3702    0.0000 C   0  0  0  0  0  0  0  0  0  0  0  0
    3.4799   -0.6543    0.0000 C   0  0  0  0  0  0  0  0  0  0  0  0
    3.8941    0.0615    0.0000 C   0  0  0  0  0  0  0  0  0  0  0  0
    2.6517   -0.6543    0.0000 C   0  0  0  0  0  0  0  0  0  0  0  0
    2.2376   -1.3702    0.0000 N   0  0  0  0  0  0  0  0  0  0  0  0
    1.4093   -1.3702    0.0000 C   0  0  0  0  0  0  0  0  0  0  0  0
    0.9952   -2.0860    0.0000 C   0  0  0  0  0  0  0  0  0  0  0  0
    0.9952   -0.6543    0.0000 C   0  0  0  0  0  0  0  0  0  0  0  0
    1.4093    0.0615    0.0000 C   0  0  0  0  0  0  0  0  0  0  0  0
    2.2376    0.0615    0.0000 N   0  0  0  0  0  0  0  0  0  0  0  0
    0.9952    0.7774    0.0000 N   0  0  0  0  0  0  0  0  0  0  0  0
    0.1726    0.8631    0.0000 C   0  0  0  0  0  0  0  0  0  0  0  0
    0.0000    1.6719    0.0000 C   0  0  0  0  0  0  0  0  0  0  0  0
    0.7158    2.0860    0.0000 C   0  0  0  0  0  0  0  0  0  0  0  0
    1.3309    1.5332    0.0000 C   0  0  0  0  0  0  0  0  0  0  0  0
  1  2  1  0
  2  7  1  0
  2  3  1  0
  3  4  1  0
  4  5  1  0
  5  6  1  0
  6  7  1  0
  6  8  1  0
  8 14  1  0
  8  9  2  0
  9 10  1  0
 10 11  1  0
 10 12  2  0
 12 13  1  0
 13 14  2  0
 13 15  1  0
 15 19  1  0
 15 16  1  0
 16 17  1  0
 17 18  1  0
 18 19  1  0
M  END
>  <SMILES>  (137) 
Cc1cc(N2CCCC2)nc(C2CCCN(C)C2)n1

>  <CollectionName>  (137) 
emolecules

>  <LOG PLASMA PROTEIN BINDING (RAT) (% unbound)>  (137) 
1.86152246312

>  <Internal ID>  (137) 
Mol137

>  <Source>  (137) 
Biogen

$$$$
31507508
     RDKit          2D

 16 18  0  0  0  0  0  0  0  0999 V2000
    0.0000   -0.3477    0.0000 O   0  0  0  0  0  0  0  0  0  0  0  0
    0.7158    0.0664    0.0000 C   0  0  0  0  0  0  0  0  0  0  0  0
    0.7158    0.8946    0.0000 C   0  0  0  0  0  0  0  0  0  0  0  0
    1.4317    1.3088    0.0000 C   0  0  0  0  0  0  0  0  0  0  0  0
    2.1475    0.8946    0.0000 C   0  0  0  0  0  0  0  0  0  0  0  0
    2.9344    1.1490    0.0000 S   0  0  0  0  0  0  0  0  0  0  0  0
    3.4254    0.4805    0.0000 C   0  0  0  0  0  0  0  0  0  0  0  0
    2.9344   -0.1880    0.0000 C   0  0  0  0  0  0  0  0  0  0  0  0
    3.1605   -0.9870    0.0000 S   0  0  0  0  0  0  0  0  0  0  0  0
    3.9245   -1.3088    0.0000 C   0  0  0  0  0  0  0  0  0  0  0  0
    4.6515   -0.9104    0.0000 C   0  0  0  0  0  0  0  0  0  0  0  0
    4.7914   -0.0933    0.0000 N   0  0  0  0  0  0  0  0  0  0  0  0
    4.2383    0.5243    0.0000 C   0  0  0  0  0  0  0  0  0  0  0  0
    4.5408    1.2940    0.0000 O   0  0  0  0  0  0  0  0  0  0  0  0
    2.1475    0.0664    0.0000 C   0  0  0  0  0  0  0  0  0  0  0  0
    1.4317   -0.3477    0.0000 C   0  0  0  0  0  0  0  0  0  0  0  0
  1  2  1  0
  2 16  2  0
  2  3  1  0
  3  4  2  0
  4  5  1  0
  5 15  2  0
  5  6  1  0
  6  7  1  0
  7 13  1  0
  7  8  2  0
  8  9  1  0
  9 10  1  0
 10 11  1  0
 11 12  1  0
 12 13  1  0
 13 14  2  0
  8 15  1  0
 15 16  1  0
M  END
>  <SMILES>  (138) 
O=C1NCCSc2c1sc1ccc(O)cc21

>  <CollectionName>  (138) 
emolecules

>  <LOG PLASMA PROTEIN BINDING (RAT) (% unbound)>  (138) 
1.16467994075

>  <Internal ID>  (138) 
Mol138

>  <Source>  (138) 
Biogen

$$$$
170739766
     RDKit          2D

 25 27  0  0  0  0  0  0  0  0999 V2000
    4.3095    1.2366    0.0000 C   0  0  0  0  0  0  0  0  0  0  0  0
    3.5903    0.8282    0.0000 C   0  0  0  0  0  0  0  0  0  0  0  0
    3.5844    0.0012    0.0000 N   0  0  0  0  0  0  0  0  0  0  0  0
    4.3003   -0.4129    0.0000 C   0  0  0  0  0  0  0  0  0  0  0  0
    4.3003   -1.2411    0.0000 C   0  0  0  0  0  0  0  0  0  0  0  0
    5.0161   -1.6552    0.0000 C   0  0  0  0  0  0  0  0  0  0  0  0
    5.0154   -2.4822    0.0000 O   0  0  0  0  0  0  0  0  0  0  0  0
    5.7327   -1.2424    0.0000 O   0  0  0  0  0  0  0  0  0  0  0  0
    3.5844   -1.6552    0.0000 C   0  0  0  0  0  0  0  0  0  0  0  0
    3.5903   -2.4822    0.0000 O   0  0  0  0  0  0  0  0  0  0  0  0
    2.8627   -1.2411    0.0000 C   0  0  0  0  0  0  0  0  0  0  0  0
    2.1468   -1.6552    0.0000 C   0  0  0  0  0  0  0  0  0  0  0  0
    2.1468   -2.4822    0.0000 N   0  0  0  0  0  0  0  0  0  0  0  0
    1.4310   -1.2411    0.0000 C   0  0  0  0  0  0  0  0  0  0  0  0
    0.7151   -1.6552    0.0000 F   0  0  0  0  0  0  0  0  0  0  0  0
    1.4310   -0.4129    0.0000 C   0  0  0  0  0  0  0  0  0  0  0  0
    0.7151    0.0012    0.0000 N   0  0  0  0  0  0  0  0  0  0  0  0
    0.7158    0.8282    0.0000 C   0  0  0  0  0  0  0  0  0  0  0  0
    0.0000    1.2424    0.0000 C   0  0  0  0  0  0  0  0  0  0  0  0
    0.0007    2.0694    0.0000 C   0  0  0  0  0  0  0  0  0  0  0  0
    0.7173    2.4822    0.0000 C   0  0  0  0  0  0  0  0  0  0  0  0
    1.4331    2.0681    0.0000 C   0  0  0  0  0  0  0  0  0  0  0  0
    1.4324    1.2411    0.0000 C   0  0  0  0  0  0  0  0  0  0  0  0
    2.1468    0.0012    0.0000 C   0  0  0  0  0  0  0  0  0  0  0  0
    2.8627   -0.4129    0.0000 C   0  0  0  0  0  0  0  0  0  0  0  0
  1  2  1  0
  2  3  1  0
  3 25  1  0
  3  4  1  0
  4  5  2  0
  5  6  1  0
  6  7  1  0
  6  8  2  0
  5  9  1  0
  9 10  2  0
  9 11  1  0
 11 25  2  0
 11 12  1  0
 12 13  1  0
 12 14  2  0
 14 15  1  0
 14 16  1  0
 16 17  1  0
 17 18  1  0
 18 23  1  0
 18 19  1  0
 19 20  1  0
 20 21  1  0
 21 22  1  0
 22 23  1  0
 16 24  2  0
 24 25  1  0
M  END
>  <SMILES>  (139) 
CCn1cc(C(=O)O)c(=O)c2c(N)c(F)c(NC3CCCCC3)cc21

>  <CollectionName>  (139) 
emolecules

>  <LOG PLASMA PROTEIN BINDING (RAT) (% unbound)>  (139) 
0.426673888021

>  <Internal ID>  (139) 
Mol139

>  <Source>  (139) 
Biogen

$$$$
299987327
     RDKit          2D

 28 31  0  0  0  0  0  0  0  0999 V2000
    0.7173    1.0341    0.0000 C   0  0  0  0  0  0  0  0  0  0  0  0
    0.7166    0.2071    0.0000 O   0  0  0  0  0  0  0  0  0  0  0  0
    1.4324   -0.2071    0.0000 C   0  0  0  0  0  0  0  0  0  0  0  0
    2.1482    0.2071    0.0000 C   0  0  0  0  0  0  0  0  0  0  0  0
    2.8641   -0.2071    0.0000 C   0  0  0  0  0  0  0  0  0  0  0  0
    3.5859    0.2071    0.0000 N   0  0  0  0  0  0  0  0  0  0  0  0
    4.3017   -0.2071    0.0000 C   0  0  0  0  0  0  0  0  0  0  0  0
    4.3017   -1.0353    0.0000 N   0  0  0  0  0  0  0  0  0  0  0  0
    3.5859   -1.4494    0.0000 C   0  0  0  0  0  0  0  0  0  0  0  0
    3.5918   -2.2764    0.0000 N   0  0  0  0  0  0  0  0  0  0  0  0
    2.8641   -1.0353    0.0000 C   0  0  0  0  0  0  0  0  0  0  0  0
    2.1482   -1.4494    0.0000 C   0  0  0  0  0  0  0  0  0  0  0  0
    1.4324   -1.0353    0.0000 C   0  0  0  0  0  0  0  0  0  0  0  0
    0.7166   -1.4494    0.0000 O   0  0  0  0  0  0  0  0  0  0  0  0
    0.0000   -1.0366    0.0000 C   0  0  0  0  0  0  0  0  0  0  0  0
    5.0175    0.2071    0.0000 N   0  0  0  0  0  0  0  0  0  0  0  0
    5.0168    1.0341    0.0000 C   0  0  0  0  0  0  0  0  0  0  0  0
    5.7327    1.4482    0.0000 C   0  0  0  0  0  0  0  0  0  0  0  0
    6.4492    1.0353    0.0000 N   0  0  0  0  0  0  0  0  0  0  0  0
    6.4499    0.2083    0.0000 C   0  0  0  0  0  0  0  0  0  0  0  0
    5.7341   -0.2058    0.0000 C   0  0  0  0  0  0  0  0  0  0  0  0
    7.1651    1.4494    0.0000 C   0  0  0  0  0  0  0  0  0  0  0  0
    7.1643    2.2764    0.0000 O   0  0  0  0  0  0  0  0  0  0  0  0
    7.8816    1.0365    0.0000 C   0  0  0  0  0  0  0  0  0  0  0  0
    8.6368    1.3736    0.0000 C   0  0  0  0  0  0  0  0  0  0  0  0
    9.1907    0.7595    0.0000 C   0  0  0  0  0  0  0  0  0  0  0  0
    8.7779    0.0429    0.0000 C   0  0  0  0  0  0  0  0  0  0  0  0
    7.9688    0.2142    0.0000 O   0  0  0  0  0  0  0  0  0  0  0  0
  1  2  1  0
  2  3  1  0
  3 13  2  0
  3  4  1  0
  4  5  2  0
  5 11  1  0
  5  6  1  0
  6  7  2  0
  7  8  1  0
  8  9  2  0
  9 10  1  0
  9 11  1  0
 11 12  2  0
 12 13  1  0
 13 14  1  0
 14 15  1  0
  7 16  1  0
 16 21  1  0
 16 17  1  0
 17 18  1  0
 18 19  1  0
 19 20  1  0
 20 21  1  0
 19 22  1  0
 22 23  2  0
 22 24  1  0
 24 28  1  0
 24 25  2  0
 25 26  1  0
 26 27  2  0
 27 28  1  0
M  END
>  <SMILES>  (140) 
COc1cc2nc(N3CCN(C(=O)c4ccco4)CC3)nc(N)c2cc1OC

>  <CollectionName>  (140) 
emolecules

>  <LOG PLASMA PROTEIN BINDING (RAT) (% unbound)>  (140) 
1.37188024909

>  <Internal ID>  (140) 
Mol3055

>  <Source>  (140) 
Biogen

$$$$
29936179
     RDKit          2D

 24 25  0  0  1  0  0  0  0  0999 V2000
    0.8270    2.3702    0.0000 C   0  0  0  0  0  0  0  0  0  0  0  0
    0.8270    1.5432    0.0000 C   0  0  0  0  0  0  0  0  0  0  0  0
    1.6540    1.5432    0.0000 C   0  0  0  0  0  0  0  0  0  0  0  0
    2.0675    0.8270    0.0000 C   0  0  0  0  0  0  0  0  0  0  0  0
    2.8945    0.8270    0.0000 C   0  0  0  0  0  0  0  0  0  0  0  0
    3.3080    1.5432    0.0000 C   0  0  0  0  0  0  0  0  0  0  0  0
    4.1350    1.5432    0.0000 C   0  0  0  0  0  0  0  0  0  0  0  0
    4.5485    0.8270    0.0000 C   0  0  0  0  0  0  0  0  0  0  0  0
    4.1350    0.1108    0.0000 C   0  0  0  0  0  0  0  0  0  0  0  0
    3.3080    0.1108    0.0000 C   0  0  0  0  0  0  0  0  0  0  0  0
    0.0000    1.5432    0.0000 N   0  0  0  0  0  0  0  0  0  0  0  0
   -0.4135    0.8270    0.0000 C   0  0  0  0  0  0  0  0  0  0  0  0
   -1.2405    0.8270    0.0000 C   0  0  0  0  0  0  0  0  0  0  0  0
   -1.2405    0.0000    0.0000 O   0  0  0  0  0  0  0  0  0  0  0  0
   -2.0675    0.8270    0.0000 C   0  0  0  0  0  0  0  0  0  0  0  0
   -2.4810    0.1108    0.0000 C   0  0  0  0  0  0  0  0  0  0  0  0
   -3.3080    0.1108    0.0000 C   0  0  0  0  0  0  0  0  0  0  0  0
   -3.7215    0.8270    0.0000 C   0  0  0  0  0  0  0  0  0  0  0  0
   -4.5485    0.8270    0.0000 O   0  0  0  0  0  0  0  0  0  0  0  0
   -3.3080    1.5432    0.0000 C   0  0  0  0  0  0  0  0  0  0  0  0
   -2.4810    1.5432    0.0000 C   0  0  0  0  0  0  0  0  0  0  0  0
   -3.7215    2.2594    0.0000 C   0  0  0  0  0  0  0  0  0  0  0  0
   -3.3080    2.9756    0.0000 N   0  0  0  0  0  0  0  0  0  0  0  0
   -4.5485    2.2594    0.0000 O   0  0  0  0  0  0  0  0  0  0  0  0
  2  1  1  1
  2  3  1  0
  3  4  1  0
  4  5  1  0
  5 10  1  0
  5  6  2  0
  6  7  1  0
  7  8  2  0
  8  9  1  0
  9 10  2  0
  2 11  1  0
 11 12  1  0
 12 13  1  0
 13 14  1  1
 13 15  1  0
 15 21  1  0
 15 16  2  0
 16 17  1  0
 17 18  2  0
 18 19  1  0
 18 20  1  0
 20 21  2  0
 20 22  1  0
 22 23  1  0
 22 24  2  0
M  END
>  <SMILES>  (141) 
C[C@H](CCc1ccccc1)NC[C@H](O)c1ccc(O)c(C(N)=O)c1

>  <CollectionName>  (141) 
emolecules

>  <LOG PLASMA PROTEIN BINDING (RAT) (% unbound)>  (141) 
1.6585074498

>  <Internal ID>  (141) 
Mol3056

>  <Source>  (141) 
Biogen

$$$$
324053897
     RDKit          2D

 28 32  0  0  0  0  0  0  0  0999 V2000
    6.1654    1.2532    0.0000 C   0  0  0  0  0  0  0  0  0  0  0  0
    5.4491    0.8397    0.0000 C   0  0  0  0  0  0  0  0  0  0  0  0
    6.1654    0.4262    0.0000 C   0  0  0  0  0  0  0  0  0  0  0  0
    4.9581    0.1712    0.0000 C   0  0  0  0  0  0  0  0  0  0  0  0
    4.1713    0.4256    0.0000 C   0  0  0  0  0  0  0  0  0  0  0  0
    3.4554    0.0115    0.0000 C   0  0  0  0  0  0  0  0  0  0  0  0
    2.7396    0.4256    0.0000 C   0  0  0  0  0  0  0  0  0  0  0  0
    2.0238    0.0115    0.0000 N   0  0  0  0  0  0  0  0  0  0  0  0
    2.0245   -0.8155    0.0000 C   0  0  0  0  0  0  0  0  0  0  0  0
    2.7410   -1.2284    0.0000 O   0  0  0  0  0  0  0  0  0  0  0  0
    1.3086   -1.2296    0.0000 C   0  0  0  0  0  0  0  0  0  0  0  0
    0.5528   -0.8939    0.0000 C   0  0  0  0  0  0  0  0  0  0  0  0
    0.0000   -1.5090    0.0000 N   0  0  0  0  0  0  0  0  0  0  0  0
    0.4141   -2.2248    0.0000 N   0  0  0  0  0  0  0  0  0  0  0  0
    0.1593   -3.0116    0.0000 C   0  0  0  0  0  0  0  0  0  0  0  0
    0.7132   -3.6257    0.0000 C   0  0  0  0  0  0  0  0  0  0  0  0
    1.5219   -3.4530    0.0000 C   0  0  0  0  0  0  0  0  0  0  0  0
    1.7768   -2.6663    0.0000 N   0  0  0  0  0  0  0  0  0  0  0  0
    1.2229   -2.0522    0.0000 C   0  0  0  0  0  0  0  0  0  0  0  0
    2.7396    1.2539    0.0000 C   0  0  0  0  0  0  0  0  0  0  0  0
    2.0238    1.6680    0.0000 O   0  0  0  0  0  0  0  0  0  0  0  0
    2.0245    2.4950    0.0000 C   0  0  0  0  0  0  0  0  0  0  0  0
    1.3086    2.9091    0.0000 C   0  0  0  0  0  0  0  0  0  0  0  0
    0.8958    3.6257    0.0000 C   0  0  0  0  0  0  0  0  0  0  0  0
    0.4816    2.9098    0.0000 C   0  0  0  0  0  0  0  0  0  0  0  0
    3.4554    1.6680    0.0000 N   0  0  0  0  0  0  0  0  0  0  0  0
    4.1713    1.2539    0.0000 C   0  0  0  0  0  0  0  0  0  0  0  0
    4.9581    1.5083    0.0000 O   0  0  0  0  0  0  0  0  0  0  0  0
  1  2  1  0
  2 28  1  0
  2  3  1  0
  2  4  1  0
  4  5  1  0
  5 27  2  0
  5  6  1  0
  6  7  2  0
  7  8  1  0
  8  9  1  0
  9 10  2  0
  9 11  1  0
 11 19  2  0
 11 12  1  0
 12 13  2  0
 13 14  1  0
 14 19  1  0
 14 15  1  0
 15 16  2  0
 16 17  1  0
 17 18  2  0
 18 19  1  0
  7 20  1  0
 20 21  1  0
 21 22  1  0
 22 23  1  0
 23 25  1  0
 23 24  1  0
 24 25  1  0
 20 26  2  0
 26 27  1  0
 27 28  1  0
M  END
>  <SMILES>  (142) 
CC1(C)Cc2cc(NC(=O)c3cnn4cccnc34)c(OCC3CC3)nc2O1

>  <CollectionName>  (142) 
emolecules

>  <LOG PLASMA PROTEIN BINDING (RAT) (% unbound)>  (142) 
0.382197210377

>  <Internal ID>  (142) 
Mol3057

>  <Source>  (142) 
Biogen

$$$$
324071116
     RDKit          2D

 24 26  0  0  0  0  0  0  0  0999 V2000
    3.9440   -2.3235    0.0000 F   0  0  0  0  0  0  0  0  0  0  0  0
    4.4998   -1.7111    0.0000 C   0  0  0  0  0  0  0  0  0  0  0  0
    5.3081   -1.8863    0.0000 C   0  0  0  0  0  0  0  0  0  0  0  0
    5.8639   -1.2739    0.0000 C   0  0  0  0  0  0  0  0  0  0  0  0
    6.6721   -1.4491    0.0000 C   0  0  0  0  0  0  0  0  0  0  0  0
    7.4804   -1.6242    0.0000 N   0  0  0  0  0  0  0  0  0  0  0  0
    5.6115   -0.4864    0.0000 C   0  0  0  0  0  0  0  0  0  0  0  0
    6.1673    0.1260    0.0000 F   0  0  0  0  0  0  0  0  0  0  0  0
    4.8032   -0.3112    0.0000 C   0  0  0  0  0  0  0  0  0  0  0  0
    4.2474   -0.9236    0.0000 C   0  0  0  0  0  0  0  0  0  0  0  0
    3.4392   -0.7484    0.0000 N   0  0  0  0  0  0  0  0  0  0  0  0
    3.1868    0.0392    0.0000 S   0  0  0  0  0  0  0  0  0  0  0  0
    3.9743    0.2916    0.0000 O   0  0  0  0  0  0  0  0  0  0  0  0
    2.3992   -0.2133    0.0000 O   0  0  0  0  0  0  0  0  0  0  0  0
    2.9344    0.8267    0.0000 C   0  0  0  0  0  0  0  0  0  0  0  0
    3.4254    1.4952    0.0000 C   0  0  0  0  0  0  0  0  0  0  0  0
    2.9344    2.1637    0.0000 N   0  0  0  0  0  0  0  0  0  0  0  0
    2.1475    1.9093    0.0000 C   0  0  0  0  0  0  0  0  0  0  0  0
    1.4317    2.3235    0.0000 C   0  0  0  0  0  0  0  0  0  0  0  0
    0.7158    1.9093    0.0000 C   0  0  0  0  0  0  0  0  0  0  0  0
    0.0000    2.3235    0.0000 Cl  0  0  0  0  0  0  0  0  0  0  0  0
    0.7158    1.0811    0.0000 C   0  0  0  0  0  0  0  0  0  0  0  0
    1.4317    0.6670    0.0000 C   0  0  0  0  0  0  0  0  0  0  0  0
    2.1475    1.0811    0.0000 C   0  0  0  0  0  0  0  0  0  0  0  0
  1  2  1  0
  2 10  2  0
  2  3  1  0
  3  4  2  0
  4  5  1  0
  5  6  3  0
  4  7  1  0
  7  8  1  0
  7  9  2  0
  9 10  1  0
 10 11  1  0
 11 12  1  0
 12 13  2  0
 12 14  2  0
 12 15  1  0
 15 24  1  0
 15 16  2  0
 16 17  1  0
 17 18  1  0
 18 24  2  0
 18 19  1  0
 19 20  2  0
 20 21  1  0
 20 22  1  0
 22 23  2  0
 23 24  1  0
M  END
>  <SMILES>  (143) 
N#Cc1cc(F)c(NS(=O)(=O)c2c[nH]c3cc(Cl)ccc23)cc1F

>  <CollectionName>  (143) 
emolecules

>  <LOG PLASMA PROTEIN BINDING (RAT) (% unbound)>  (143) 
-0.251811972994

>  <Internal ID>  (143) 
Mol3058

>  <Source>  (143) 
Biogen

$$$$
300014701
     RDKit          2D

 22 22  0  0  1  0  0  0  0  0999 V2000
    1.0189    1.6946    0.0000 C   0  0  0  0  0  0  0  0  0  0  0  0
    1.4324    0.9784    0.0000 C   0  0  0  0  0  0  0  0  0  0  0  0
    2.2594    0.9784    0.0000 C   0  0  0  0  0  0  0  0  0  0  0  0
    1.0189    0.2621    0.0000 C   0  0  0  0  0  0  0  0  0  0  0  0
    1.4324   -0.4541    0.0000 C   0  0  0  0  0  0  0  0  0  0  0  0
    2.1486   -0.0406    0.0000 N   0  0  0  0  0  0  0  0  0  0  0  0
    2.8648   -0.4541    0.0000 C   0  0  0  0  0  0  0  0  0  0  0  0
    2.8648   -1.2811    0.0000 O   0  0  0  0  0  0  0  0  0  0  0  0
    3.5810   -0.0406    0.0000 C   0  0  0  0  0  0  0  0  0  0  0  0
    3.1675    0.6756    0.0000 O   0  0  0  0  0  0  0  0  0  0  0  0
    4.2972    0.3729    0.0000 C   0  0  0  0  0  0  0  0  0  0  0  0
    4.7107   -0.3433    0.0000 N   0  0  0  0  0  0  0  0  0  0  0  0
    5.0134    0.7864    0.0000 C   0  0  0  0  0  0  0  0  0  0  0  0
    5.7296    0.3729    0.0000 C   0  0  0  0  0  0  0  0  0  0  0  0
    5.7296   -0.4541    0.0000 C   0  0  0  0  0  0  0  0  0  0  0  0
    6.4458   -0.8676    0.0000 C   0  0  0  0  0  0  0  0  0  0  0  0
    7.1620   -0.4541    0.0000 C   0  0  0  0  0  0  0  0  0  0  0  0
    7.1620    0.3729    0.0000 C   0  0  0  0  0  0  0  0  0  0  0  0
    6.4458    0.7864    0.0000 C   0  0  0  0  0  0  0  0  0  0  0  0
    0.7162   -0.8676    0.0000 C   0  0  0  0  0  0  0  0  0  0  0  0
    0.7162   -1.6946    0.0000 O   0  0  0  0  0  0  0  0  0  0  0  0
    0.0000   -0.4541    0.0000 O   0  0  0  0  0  0  0  0  0  0  0  0
  1  2  1  0
  2  3  1  0
  2  4  1  0
  5  4  1  1
  5  6  1  0
  6  7  1  0
  7  8  2  0
  7  9  1  0
  9 10  1  6
  9 11  1  0
 11 12  1  6
 11 13  1  0
 13 14  1  0
 14 19  2  0
 14 15  1  0
 15 16  2  0
 16 17  1  0
 17 18  2  0
 18 19  1  0
  5 20  1  0
 20 21  1  0
 20 22  2  0
M  END
>  <SMILES>  (144) 
CC(C)C[C@H](NC(=O)[C@@H](O)[C@H](N)Cc1ccccc1)C(=O)O

>  <CollectionName>  (144) 
emolecules

>  <LOG PLASMA PROTEIN BINDING (RAT) (% unbound)>  (144) 
1.5405296797

>  <Internal ID>  (144) 
Mol3059

>  <Source>  (144) 
Biogen

$$$$
902124
     RDKit          2D

 19 19  0  0  0  0  0  0  0  0999 V2000
   -4.3418    4.2972    0.0000 C   0  0  0  0  0  0  0  0  0  0  0  0
   -3.9283    3.5810    0.0000 O   0  0  0  0  0  0  0  0  0  0  0  0
   -3.1012    3.5810    0.0000 C   0  0  0  0  0  0  0  0  0  0  0  0
   -2.6878    2.8648    0.0000 C   0  0  0  0  0  0  0  0  0  0  0  0
   -1.8607    2.8648    0.0000 C   0  0  0  0  0  0  0  0  0  0  0  0
   -1.4473    3.5810    0.0000 C   0  0  0  0  0  0  0  0  0  0  0  0
   -0.6202    3.5810    0.0000 C   0  0  0  0  0  0  0  0  0  0  0  0
   -0.2068    2.8648    0.0000 C   0  0  0  0  0  0  0  0  0  0  0  0
    0.6202    2.8648    0.0000 O   0  0  0  0  0  0  0  0  0  0  0  0
    1.0338    2.1486    0.0000 C   0  0  0  0  0  0  0  0  0  0  0  0
    1.8607    2.1486    0.0000 C   0  0  0  0  0  0  0  0  0  0  0  0
    2.2743    2.8648    0.0000 O   0  0  0  0  0  0  0  0  0  0  0  0
    2.2743    1.4324    0.0000 C   0  0  0  0  0  0  0  0  0  0  0  0
    3.1012    1.4324    0.0000 N   0  0  0  0  0  0  0  0  0  0  0  0
    3.5148    0.7162    0.0000 C   0  0  0  0  0  0  0  0  0  0  0  0
    4.3418    0.7162    0.0000 C   0  0  0  0  0  0  0  0  0  0  0  0
    3.1012   -0.0000    0.0000 C   0  0  0  0  0  0  0  0  0  0  0  0
   -0.6202    2.1486    0.0000 C   0  0  0  0  0  0  0  0  0  0  0  0
   -1.4473    2.1486    0.0000 C   0  0  0  0  0  0  0  0  0  0  0  0
  1  2  1  0
  2  3  1  0
  3  4  1  0
  4  5  1  0
  5 19  2  0
  5  6  1  0
  6  7  2  0
  7  8  1  0
  8  9  1  0
  9 10  1  0
 10 11  1  0
 11 12  1  0
 11 13  1  0
 13 14  1  0
 14 15  1  0
 15 16  1  0
 15 17  1  0
  8 18  2  0
 18 19  1  0
M  END
>  <SMILES>  (145) 
COCCc1ccc(OCC(O)CNC(C)C)cc1

>  <CollectionName>  (145) 
emolecules

>  <LOG PLASMA PROTEIN BINDING (RAT) (% unbound)>  (145) 
2.0

>  <Internal ID>  (145) 
Mol3060

>  <Source>  (145) 
Biogen

$$$$
511466
     RDKit          2D

 21 22  0  0  0  0  0  0  0  0999 V2000
   -3.1012    2.8648    0.0000 C   0  0  0  0  0  0  0  0  0  0  0  0
   -2.6878    2.1486    0.0000 O   0  0  0  0  0  0  0  0  0  0  0  0
   -1.8607    2.1486    0.0000 C   0  0  0  0  0  0  0  0  0  0  0  0
   -1.4473    2.8648    0.0000 C   0  0  0  0  0  0  0  0  0  0  0  0
   -0.6202    2.8648    0.0000 C   0  0  0  0  0  0  0  0  0  0  0  0
   -0.2068    3.5810    0.0000 C   0  0  0  0  0  0  0  0  0  0  0  0
    0.6202    3.5810    0.0000 C   0  0  0  0  0  0  0  0  0  0  0  0
    1.0338    2.8648    0.0000 C   0  0  0  0  0  0  0  0  0  0  0  0
    1.8607    2.8648    0.0000 N   0  0  0  0  0  0  0  0  0  0  0  0
    2.2743    3.5810    0.0000 C   0  0  0  0  0  0  0  0  0  0  0  0
    3.1012    3.5810    0.0000 N   0  0  0  0  0  0  0  0  0  0  0  0
    1.8607    4.2972    0.0000 N   0  0  0  0  0  0  0  0  0  0  0  0
    1.0338    4.2972    0.0000 C   0  0  0  0  0  0  0  0  0  0  0  0
    0.6202    5.0134    0.0000 N   0  0  0  0  0  0  0  0  0  0  0  0
   -0.2068    2.1486    0.0000 C   0  0  0  0  0  0  0  0  0  0  0  0
   -0.6202    1.4324    0.0000 C   0  0  0  0  0  0  0  0  0  0  0  0
   -0.2068    0.7162    0.0000 O   0  0  0  0  0  0  0  0  0  0  0  0
   -0.6202    0.0000    0.0000 C   0  0  0  0  0  0  0  0  0  0  0  0
   -1.4473    1.4324    0.0000 C   0  0  0  0  0  0  0  0  0  0  0  0
   -1.8607    0.7162    0.0000 O   0  0  0  0  0  0  0  0  0  0  0  0
   -2.6878    0.7162    0.0000 C   0  0  0  0  0  0  0  0  0  0  0  0
  1  2  1  0
  2  3  1  0
  3 19  2  0
  3  4  1  0
  4  5  2  0
  5  6  1  0
  6  7  1  0
  7 13  1  0
  7  8  2  0
  8  9  1  0
  9 10  2  0
 10 11  1  0
 10 12  1  0
 12 13  2  0
 13 14  1  0
  5 15  1  0
 15 16  2  0
 16 17  1  0
 17 18  1  0
 16 19  1  0
 19 20  1  0
 20 21  1  0
M  END
>  <SMILES>  (146) 
COc1cc(Cc2cnc(N)nc2N)cc(OC)c1OC

>  <CollectionName>  (146) 
emolecules

>  <LOG PLASMA PROTEIN BINDING (RAT) (% unbound)>  (146) 
1.85551309852

>  <Internal ID>  (146) 
Mol3061

>  <Source>  (146) 
Biogen

$$$$
EN300-120644
     RDKit          2D

 19 20  0  0  0  0  0  0  0  0999 V2000
    2.8648    1.4473    0.0000 C   0  0  0  0  0  0  0  0  0  0  0  0
    3.5810    1.0338    0.0000 C   0  0  0  0  0  0  0  0  0  0  0  0
    4.2972    1.4473    0.0000 C   0  0  0  0  0  0  0  0  0  0  0  0
    4.2972    2.2743    0.0000 O   0  0  0  0  0  0  0  0  0  0  0  0
    5.0134    1.0338    0.0000 O   0  0  0  0  0  0  0  0  0  0  0  0
    3.5810    0.2068    0.0000 C   0  0  0  0  0  0  0  0  0  0  0  0
    4.2972   -0.2068    0.0000 C   0  0  0  0  0  0  0  0  0  0  0  0
    4.2972   -1.0338    0.0000 C   0  0  0  0  0  0  0  0  0  0  0  0
    3.5810   -1.4473    0.0000 C   0  0  0  0  0  0  0  0  0  0  0  0
    2.8648   -1.0338    0.0000 C   0  0  0  0  0  0  0  0  0  0  0  0
    2.1486   -1.4473    0.0000 C   0  0  0  0  0  0  0  0  0  0  0  0
    2.1486   -2.2743    0.0000 O   0  0  0  0  0  0  0  0  0  0  0  0
    1.4324   -1.0338    0.0000 C   0  0  0  0  0  0  0  0  0  0  0  0
    0.7162   -1.4473    0.0000 C   0  0  0  0  0  0  0  0  0  0  0  0
    0.0000   -1.0338    0.0000 C   0  0  0  0  0  0  0  0  0  0  0  0
    0.0000   -0.2067    0.0000 C   0  0  0  0  0  0  0  0  0  0  0  0
    0.7162    0.2068    0.0000 C   0  0  0  0  0  0  0  0  0  0  0  0
    1.4324   -0.2068    0.0000 C   0  0  0  0  0  0  0  0  0  0  0  0
    2.8648   -0.2068    0.0000 C   0  0  0  0  0  0  0  0  0  0  0  0
  1  2  1  0
  2  3  1  0
  3  4  2  0
  3  5  1  0
  2  6  1  0
  6 19  2  0
  6  7  1  0
  7  8  2  0
  8  9  1  0
  9 10  2  0
 10 11  1  0
 11 12  2  0
 11 13  1  0
 13 18  1  0
 13 14  2  0
 14 15  1  0
 15 16  2  0
 16 17  1  0
 17 18  2  0
 10 19  1  0
M  END
>  <SMILES>  (147) 
CC(C(=O)O)c1cccc(C(=O)c2ccccc2)c1

>  <CollectionName>  (147) 
enamineBB_pmc

>  <LOG PLASMA PROTEIN BINDING (RAT) (% unbound)>  (147) 
0.0472748673842

>  <Internal ID>  (147) 
Mol3062

>  <Source>  (147) 
Biogen

$$$$
104664531
     RDKit          2D

 42 47  0  0  0  0  0  0  0  0999 V2000
    2.1456    6.2081    0.0000 C   0  0  0  0  0  0  0  0  0  0  0  0
    1.4324    5.7895    0.0000 O   0  0  0  0  0  0  0  0  0  0  0  0
    1.4383    4.9625    0.0000 C   0  0  0  0  0  0  0  0  0  0  0  0
    2.1574    4.5542    0.0000 C   0  0  0  0  0  0  0  0  0  0  0  0
    2.1633    3.7272    0.0000 C   0  0  0  0  0  0  0  0  0  0  0  0
    2.8825    3.3188    0.0000 C   0  0  0  0  0  0  0  0  0  0  0  0
    2.8884    2.4918    0.0000 C   0  0  0  0  0  0  0  0  0  0  0  0
    2.1751    2.0732    0.0000 N   0  0  0  0  0  0  0  0  0  0  0  0
    2.1810    1.2462    0.0000 C   0  0  0  0  0  0  0  0  0  0  0  0
    1.4678    0.8276    0.0000 C   0  0  0  0  0  0  0  0  0  0  0  0
    1.4737    0.0007    0.0000 C   0  0  0  0  0  0  0  0  0  0  0  0
    2.1929   -0.4077    0.0000 C   0  0  0  0  0  0  0  0  0  0  0  0
    2.1988   -1.2347    0.0000 C   0  0  0  0  0  0  0  0  0  0  0  0
    1.4855   -1.6533    0.0000 C   0  0  0  0  0  0  0  0  0  0  0  0
    1.4914   -2.4803    0.0000 N   0  0  0  0  0  0  0  0  0  0  0  0
    0.7782   -2.8989    0.0000 C   0  0  0  0  0  0  0  0  0  0  0  0
    0.0591   -2.4905    0.0000 O   0  0  0  0  0  0  0  0  0  0  0  0
    0.7841   -3.7259    0.0000 C   0  0  0  0  0  0  0  0  0  0  0  0
    0.0688   -4.1397    0.0000 C   0  0  0  0  0  0  0  0  0  0  0  0
    0.0688   -4.9673    0.0000 C   0  0  0  0  0  0  0  0  0  0  0  0
    0.7841   -5.3811    0.0000 C   0  0  0  0  0  0  0  0  0  0  0  0
    1.5053   -4.9673    0.0000 C   0  0  0  0  0  0  0  0  0  0  0  0
    2.2206   -5.3811    0.0000 C   0  0  0  0  0  0  0  0  0  0  0  0
    2.2206   -6.2081    0.0000 O   0  0  0  0  0  0  0  0  0  0  0  0
    2.9359   -4.9673    0.0000 C   0  0  0  0  0  0  0  0  0  0  0  0
    3.6512   -5.3811    0.0000 C   0  0  0  0  0  0  0  0  0  0  0  0
    4.3725   -4.9673    0.0000 C   0  0  0  0  0  0  0  0  0  0  0  0
    4.3725   -4.1397    0.0000 C   0  0  0  0  0  0  0  0  0  0  0  0
    3.6512   -3.7259    0.0000 C   0  0  0  0  0  0  0  0  0  0  0  0
    3.6453   -2.8989    0.0000 O   0  0  0  0  0  0  0  0  0  0  0  0
    4.3586   -2.4803    0.0000 C   0  0  0  0  0  0  0  0  0  0  0  0
    2.9359   -4.1397    0.0000 C   0  0  0  0  0  0  0  0  0  0  0  0
    2.2206   -3.7259    0.0000 N   0  0  0  0  0  0  0  0  0  0  0  0
    1.5053   -4.1397    0.0000 C   0  0  0  0  0  0  0  0  0  0  0  0
    0.7664   -1.2449    0.0000 C   0  0  0  0  0  0  0  0  0  0  0  0
    0.7605   -0.4179    0.0000 C   0  0  0  0  0  0  0  0  0  0  0  0
    1.4560    2.4816    0.0000 C   0  0  0  0  0  0  0  0  0  0  0  0
    1.4501    3.3086    0.0000 C   0  0  0  0  0  0  0  0  0  0  0  0
    0.7310    3.7169    0.0000 C   0  0  0  0  0  0  0  0  0  0  0  0
    0.7250    4.5439    0.0000 C   0  0  0  0  0  0  0  0  0  0  0  0
    0.0059    4.9523    0.0000 O   0  0  0  0  0  0  0  0  0  0  0  0
    0.0000    5.7793    0.0000 C   0  0  0  0  0  0  0  0  0  0  0  0
  1  2  1  0
  2  3  1  0
  3 40  2  0
  3  4  1  0
  4  5  2  0
  5 38  1  0
  5  6  1  0
  6  7  1  0
  7  8  1  0
  8  9  1  0
  9 10  1  0
 10 11  1  0
 11 36  1  0
 11 12  2  0
 12 13  1  0
 13 14  2  0
 14 15  1  0
 15 16  1  0
 16 17  2  0
 16 18  1  0
 18 34  1  0
 18 19  2  0
 19 20  1  0
 20 21  2  0
 21 22  1  0
 22 34  2  0
 22 23  1  0
 23 24  1  0
 23 25  2  0
 25 32  1  0
 25 26  1  0
 26 27  2  0
 27 28  1  0
 28 29  2  0
 29 30  1  0
 30 31  1  0
 29 32  1  0
 32 33  2  0
 33 34  1  0
 14 35  1  0
 35 36  2  0
  8 37  1  0
 37 38  1  0
 38 39  2  0
 39 40  1  0
 40 41  1  0
 41 42  1  0
M  END
>  <SMILES>  (148) 
COc1cc2c(cc1OC)CN(CCc1ccc(NC(=O)c3cccc4c(O)c5cccc(OC)c5nc34)cc1)CC2

>  <CollectionName>  (148) 
emolecules

>  <LOG PLASMA PROTEIN BINDING (RAT) (% unbound)>  (148) 
-1.2924298239

>  <Internal ID>  (148) 
Mol3063

>  <Source>  (148) 
Biogen

$$$$
300001661
     RDKit          2D

 18 18  0  0  0  0  0  0  0  0999 V2000
   -3.1012    4.2972    0.0000 C   0  0  0  0  0  0  0  0  0  0  0  0
   -2.2743    4.2972    0.0000 C   0  0  0  0  0  0  0  0  0  0  0  0
   -1.8607    5.0134    0.0000 C   0  0  0  0  0  0  0  0  0  0  0  0
   -1.8607    3.5810    0.0000 N   0  0  0  0  0  0  0  0  0  0  0  0
   -1.0338    3.5810    0.0000 C   0  0  0  0  0  0  0  0  0  0  0  0
   -0.6202    2.8648    0.0000 C   0  0  0  0  0  0  0  0  0  0  0  0
   -1.0338    2.1486    0.0000 O   0  0  0  0  0  0  0  0  0  0  0  0
    0.2068    2.8648    0.0000 C   0  0  0  0  0  0  0  0  0  0  0  0
    0.6202    2.1486    0.0000 O   0  0  0  0  0  0  0  0  0  0  0  0
    1.4473    2.1486    0.0000 C   0  0  0  0  0  0  0  0  0  0  0  0
    1.8607    2.8648    0.0000 C   0  0  0  0  0  0  0  0  0  0  0  0
    2.6878    2.8648    0.0000 C   0  0  0  0  0  0  0  0  0  0  0  0
    3.1012    2.1486    0.0000 C   0  0  0  0  0  0  0  0  0  0  0  0
    2.6878    1.4324    0.0000 C   0  0  0  0  0  0  0  0  0  0  0  0
    1.8607    1.4324    0.0000 C   0  0  0  0  0  0  0  0  0  0  0  0
    1.4473    0.7162    0.0000 C   0  0  0  0  0  0  0  0  0  0  0  0
    0.6202    0.7162    0.0000 C   0  0  0  0  0  0  0  0  0  0  0  0
    0.2068   -0.0000    0.0000 C   0  0  0  0  0  0  0  0  0  0  0  0
  1  2  1  0
  2  3  1  0
  2  4  1  0
  4  5  1  0
  5  6  1  0
  6  7  1  0
  6  8  1  0
  8  9  1  0
  9 10  1  0
 10 15  2  0
 10 11  1  0
 11 12  2  0
 12 13  1  0
 13 14  2  0
 14 15  1  0
 15 16  1  0
 16 17  1  0
 17 18  2  0
M  END
>  <SMILES>  (149) 
C=CCc1ccccc1OCC(O)CNC(C)C

>  <CollectionName>  (149) 
emolecules

>  <LOG PLASMA PROTEIN BINDING (RAT) (% unbound)>  (149) 
1.49602969904

>  <Internal ID>  (149) 
Mol3064

>  <Source>  (149) 
Biogen

$$$$
29702921
     RDKit          2D

 16 17  0  0  0  0  0  0  0  0999 V2000
    0.0000   -0.0349    0.0000 N   0  0  0  0  0  0  0  0  0  0  0  0
    0.7158   -0.4490    0.0000 C   0  0  0  0  0  0  0  0  0  0  0  0
    0.7158   -1.2772    0.0000 N   0  0  0  0  0  0  0  0  0  0  0  0
    1.4317   -1.6914    0.0000 C   0  0  0  0  0  0  0  0  0  0  0  0
    1.4317   -2.5184    0.0000 O   0  0  0  0  0  0  0  0  0  0  0  0
    2.1475   -1.2772    0.0000 C   0  0  0  0  0  0  0  0  0  0  0  0
    2.9344   -1.5316    0.0000 N   0  0  0  0  0  0  0  0  0  0  0  0
    3.4254   -0.8631    0.0000 C   0  0  0  0  0  0  0  0  0  0  0  0
    2.9344   -0.1946    0.0000 N   0  0  0  0  0  0  0  0  0  0  0  0
    3.1868    0.5929    0.0000 C   0  0  0  0  0  0  0  0  0  0  0  0
    3.9950    0.7681    0.0000 O   0  0  0  0  0  0  0  0  0  0  0  0
    4.2474    1.5556    0.0000 C   0  0  0  0  0  0  0  0  0  0  0  0
    5.0557    1.7308    0.0000 C   0  0  0  0  0  0  0  0  0  0  0  0
    5.3081    2.5184    0.0000 O   0  0  0  0  0  0  0  0  0  0  0  0
    2.1475   -0.4490    0.0000 C   0  0  0  0  0  0  0  0  0  0  0  0
    1.4317   -0.0349    0.0000 N   0  0  0  0  0  0  0  0  0  0  0  0
  1  2  1  0
  2 16  1  0
  2  3  2  0
  3  4  1  0
  4  5  2  0
  4  6  1  0
  6 15  2  0
  6  7  1  0
  7  8  2  0
  8  9  1  0
  9 10  1  0
 10 11  1  0
 11 12  1  0
 12 13  1  0
 13 14  1  0
  9 15  1  0
 15 16  1  0
M  END
>  <SMILES>  (150) 
Nc1nc(=O)c2ncn(COCCO)c2[nH]1

>  <CollectionName>  (150) 
emolecules

>  <LOG PLASMA PROTEIN BINDING (RAT) (% unbound)>  (150) 
1.85086057307

>  <Internal ID>  (150) 
Mol3065

>  <Source>  (150) 
Biogen

$$$$
LN00239936
     RDKit          2D

 29 30  0  0  1  0  0  0  0  0999 V2000
    7.1620    0.0252    0.0000 N   0  0  0  0  0  0  0  0  0  0  0  0
    6.4458    0.4387    0.0000 C   0  0  0  0  0  0  0  0  0  0  0  0
    5.7296    0.0252    0.0000 C   0  0  0  0  0  0  0  0  0  0  0  0
    5.0134    0.4387    0.0000 C   0  0  0  0  0  0  0  0  0  0  0  0
    4.2972    0.0252    0.0000 C   0  0  0  0  0  0  0  0  0  0  0  0
    3.5810    0.4387    0.0000 C   0  0  0  0  0  0  0  0  0  0  0  0
    3.9945    1.1549    0.0000 N   0  0  0  0  0  0  0  0  0  0  0  0
    3.5810    1.8711    0.0000 C   0  0  0  0  0  0  0  0  0  0  0  0
    2.8648    1.4576    0.0000 C   0  0  0  0  0  0  0  0  0  0  0  0
    2.1486    1.8711    0.0000 C   0  0  0  0  0  0  0  0  0  0  0  0
    1.4324    1.4576    0.0000 C   0  0  0  0  0  0  0  0  0  0  0  0
    0.7162    1.8711    0.0000 C   0  0  0  0  0  0  0  0  0  0  0  0
    0.0000    1.4576    0.0000 C   0  0  0  0  0  0  0  0  0  0  0  0
    0.0000    0.6306    0.0000 C   0  0  0  0  0  0  0  0  0  0  0  0
    0.7162    0.2171    0.0000 C   0  0  0  0  0  0  0  0  0  0  0  0
    1.4324    0.6306    0.0000 C   0  0  0  0  0  0  0  0  0  0  0  0
    4.2972    2.2846    0.0000 C   0  0  0  0  0  0  0  0  0  0  0  0
    4.2972    3.1116    0.0000 O   0  0  0  0  0  0  0  0  0  0  0  0
    5.0134    1.8711    0.0000 O   0  0  0  0  0  0  0  0  0  0  0  0
    3.1675   -0.2776    0.0000 C   0  0  0  0  0  0  0  0  0  0  0  0
    2.3405   -0.2776    0.0000 O   0  0  0  0  0  0  0  0  0  0  0  0
    3.5810   -0.9938    0.0000 N   0  0  0  0  0  0  0  0  0  0  0  0
    4.4035   -1.0802    0.0000 C   0  0  0  0  0  0  0  0  0  0  0  0
    4.5754   -1.8891    0.0000 C   0  0  0  0  0  0  0  0  0  0  0  0
    3.8592   -2.3026    0.0000 C   0  0  0  0  0  0  0  0  0  0  0  0
    3.2446   -1.7493    0.0000 C   0  0  0  0  0  0  0  0  0  0  0  0
    2.6301   -2.3026    0.0000 C   0  0  0  0  0  0  0  0  0  0  0  0
    1.8435   -2.0471    0.0000 O   0  0  0  0  0  0  0  0  0  0  0  0
    2.8020   -3.1116    0.0000 O   0  0  0  0  0  0  0  0  0  0  0  0
  1  2  1  0
  2  3  1  0
  3  4  1  0
  4  5  1  0
  6  5  1  6
  6  7  1  0
  7  8  1  0
  8  9  1  1
  9 10  1  0
 10 11  1  0
 11 16  1  0
 11 12  2  0
 12 13  1  0
 13 14  2  0
 14 15  1  0
 15 16  2  0
  8 17  1  0
 17 18  2  0
 17 19  1  0
  6 20  1  0
 20 21  2  0
 20 22  1  0
 22 26  1  0
 22 23  1  0
 23 24  1  0
 24 25  1  0
 25 26  1  0
 26 27  1  1
 27 28  2  0
 27 29  1  0
M  END
>  <SMILES>  (151) 
NCCCC[C@H](N[C@@H](CCc1ccccc1)C(=O)O)C(=O)N1CCC[C@H]1C(=O)O

>  <CollectionName>  (151) 
labnetworkBB

>  <LOG PLASMA PROTEIN BINDING (RAT) (% unbound)>  (151) 
2.0

>  <Internal ID>  (151) 
Mol3066

>  <Source>  (151) 
Biogen

$$$$
15987806
     RDKit          2D

 30 33  0  0  0  0  0  0  0  0999 V2000
   10.5088   -0.3058    0.0000 C   0  0  0  0  0  0  0  0  0  0  0  0
    9.6818   -0.3058    0.0000 C   0  0  0  0  0  0  0  0  0  0  0  0
    9.2683    0.4104    0.0000 C   0  0  0  0  0  0  0  0  0  0  0  0
    8.4413    0.4104    0.0000 C   0  0  0  0  0  0  0  0  0  0  0  0
    7.9503   -0.2581    0.0000 N   0  0  0  0  0  0  0  0  0  0  0  0
    7.1635   -0.0037    0.0000 C   0  0  0  0  0  0  0  0  0  0  0  0
    6.4476   -0.4179    0.0000 N   0  0  0  0  0  0  0  0  0  0  0  0
    5.7318   -0.0037    0.0000 C   0  0  0  0  0  0  0  0  0  0  0  0
    5.0159   -0.4179    0.0000 C   0  0  0  0  0  0  0  0  0  0  0  0
    5.7318    0.8245    0.0000 C   0  0  0  0  0  0  0  0  0  0  0  0
    5.0159    1.2386    0.0000 N   0  0  0  0  0  0  0  0  0  0  0  0
    4.2994    0.8258    0.0000 S   0  0  0  0  0  0  0  0  0  0  0  0
    4.7123    0.1092    0.0000 O   0  0  0  0  0  0  0  0  0  0  0  0
    3.8865    1.5423    0.0000 O   0  0  0  0  0  0  0  0  0  0  0  0
    3.5828    0.4129    0.0000 C   0  0  0  0  0  0  0  0  0  0  0  0
    2.8670    0.8270    0.0000 C   0  0  0  0  0  0  0  0  0  0  0  0
    2.1504    0.4141    0.0000 C   0  0  0  0  0  0  0  0  0  0  0  0
    2.1497   -0.4129    0.0000 C   0  0  0  0  0  0  0  0  0  0  0  0
    2.8655   -0.8270    0.0000 C   0  0  0  0  0  0  0  0  0  0  0  0
    3.5821   -0.4141    0.0000 C   0  0  0  0  0  0  0  0  0  0  0  0
    1.4331   -0.8258    0.0000 C   0  0  0  0  0  0  0  0  0  0  0  0
    0.7173   -0.4116    0.0000 C   0  0  0  0  0  0  0  0  0  0  0  0
    0.0007   -0.8245    0.0000 C   0  0  0  0  0  0  0  0  0  0  0  0
    0.0000   -1.6515    0.0000 C   0  0  0  0  0  0  0  0  0  0  0  0
    0.7158   -2.0656    0.0000 C   0  0  0  0  0  0  0  0  0  0  0  0
    1.4324   -1.6528    0.0000 C   0  0  0  0  0  0  0  0  0  0  0  0
    6.4476    1.2386    0.0000 C   0  0  0  0  0  0  0  0  0  0  0  0
    6.4476    2.0656    0.0000 O   0  0  0  0  0  0  0  0  0  0  0  0
    7.1635    0.8245    0.0000 N   0  0  0  0  0  0  0  0  0  0  0  0
    7.9503    1.0789    0.0000 N   0  0  0  0  0  0  0  0  0  0  0  0
  1  2  1  0
  2  3  1  0
  3  4  1  0
  4 30  2  0
  4  5  1  0
  5  6  2  0
  6 29  1  0
  6  7  1  0
  7  8  2  0
  8  9  1  0
  8 10  1  0
 10 11  1  0
 11 12  1  0
 12 13  2  0
 12 14  2  0
 12 15  1  0
 15 20  1  0
 15 16  2  0
 16 17  1  0
 17 18  2  0
 18 19  1  0
 19 20  2  0
 18 21  1  0
 21 26  1  0
 21 22  1  0
 22 23  1  0
 23 24  1  0
 24 25  1  0
 25 26  1  0
 10 27  2  0
 27 28  1  0
 27 29  1  0
 29 30  1  0
M  END
>  <SMILES>  (152) 
CCCc1nc2nc(C)c(NS(=O)(=O)c3ccc(C4CCCCC4)cc3)c(O)n2n1

>  <CollectionName>  (152) 
emolecules

>  <LOG PLASMA PROTEIN BINDING (RAT) (% unbound)>  (152) 
-0.137272471682

>  <Internal ID>  (152) 
Mol3067

>  <Source>  (152) 
Biogen

$$$$
316754033
     RDKit          2D

 32 36  0  0  0  0  0  0  0  0999 V2000
    4.3125    2.8869    0.0000 C   0  0  0  0  0  0  0  0  0  0  0  0
    4.8626    2.2694    0.0000 O   0  0  0  0  0  0  0  0  0  0  0  0
    4.6028    1.4842    0.0000 C   0  0  0  0  0  0  0  0  0  0  0  0
    3.7930    1.3166    0.0000 C   0  0  0  0  0  0  0  0  0  0  0  0
    3.5332    0.5315    0.0000 C   0  0  0  0  0  0  0  0  0  0  0  0
    4.0833   -0.0861    0.0000 C   0  0  0  0  0  0  0  0  0  0  0  0
    4.8932    0.0816    0.0000 C   0  0  0  0  0  0  0  0  0  0  0  0
    5.1529    0.8667    0.0000 C   0  0  0  0  0  0  0  0  0  0  0  0
    3.8236   -0.8712    0.0000 C   0  0  0  0  0  0  0  0  0  0  0  0
    4.3748   -1.4877    0.0000 N   0  0  0  0  0  0  0  0  0  0  0  0
    4.1200   -2.2761    0.0000 C   0  0  0  0  0  0  0  0  0  0  0  0
    3.3079   -2.4539    0.0000 C   0  0  0  0  0  0  0  0  0  0  0  0
    2.7566   -1.8374    0.0000 C   0  0  0  0  0  0  0  0  0  0  0  0
    3.0115   -1.0431    0.0000 C   0  0  0  0  0  0  0  0  0  0  0  0
    2.3417   -0.5571    0.0000 N   0  0  0  0  0  0  0  0  0  0  0  0
    1.6659   -1.0431    0.0000 C   0  0  0  0  0  0  0  0  0  0  0  0
    0.8539   -0.8712    0.0000 C   0  0  0  0  0  0  0  0  0  0  0  0
    0.3026   -1.4877    0.0000 C   0  0  0  0  0  0  0  0  0  0  0  0
    0.5575   -2.2761    0.0000 C   0  0  0  0  0  0  0  0  0  0  0  0
    0.0000   -2.8869    0.0000 Cl  0  0  0  0  0  0  0  0  0  0  0  0
    1.3696   -2.4539    0.0000 C   0  0  0  0  0  0  0  0  0  0  0  0
    1.9268   -1.8374    0.0000 C   0  0  0  0  0  0  0  0  0  0  0  0
    5.1837   -1.3152    0.0000 C   0  0  0  0  0  0  0  0  0  0  0  0
    5.4387   -0.5285    0.0000 O   0  0  0  0  0  0  0  0  0  0  0  0
    5.7374   -1.9294    0.0000 O   0  0  0  0  0  0  0  0  0  0  0  0
    6.5463   -1.7570    0.0000 C   0  0  0  0  0  0  0  0  0  0  0  0
    7.1000   -2.3712    0.0000 C   0  0  0  0  0  0  0  0  0  0  0  0
    7.9088   -2.1987    0.0000 C   0  0  0  0  0  0  0  0  0  0  0  0
    8.1639   -1.4120    0.0000 C   0  0  0  0  0  0  0  0  0  0  0  0
    8.9727   -1.2396    0.0000 Cl  0  0  0  0  0  0  0  0  0  0  0  0
    7.6101   -0.7978    0.0000 C   0  0  0  0  0  0  0  0  0  0  0  0
    6.8013   -0.9703    0.0000 C   0  0  0  0  0  0  0  0  0  0  0  0
  1  2  1  0
  2  3  1  0
  3  8  2  0
  3  4  1  0
  4  5  2  0
  5  6  1  0
  6  7  2  0
  7  8  1  0
  6  9  1  0
  9 14  1  0
  9 10  1  0
 10 11  1  0
 11 12  1  0
 12 13  1  0
 13 22  1  0
 13 14  2  0
 14 15  1  0
 15 16  1  0
 16 22  2  0
 16 17  1  0
 17 18  2  0
 18 19  1  0
 19 20  1  0
 19 21  2  0
 21 22  1  0
 10 23  1  0
 23 24  2  0
 23 25  1  0
 25 26  1  0
 26 32  1  0
 26 27  2  0
 27 28  1  0
 28 29  2  0
 29 30  1  0
 29 31  1  0
 31 32  2  0
M  END
>  <SMILES>  (153) 
COc1ccc(C2c3[nH]c4ccc(Cl)cc4c3CCN2C(=O)Oc2ccc(Cl)cc2)cc1

>  <CollectionName>  (153) 
emolecules

>  <LOG PLASMA PROTEIN BINDING (RAT) (% unbound)>  (153) 
1.75460822294

>  <Internal ID>  (153) 
Mol3068

>  <Source>  (153) 
Biogen

$$$$
139727
     RDKit          2D

 32 35  0  0  0  0  0  0  0  0999 V2000
    6.6222    2.1486    0.0000 N   0  0  0  0  0  0  0  0  0  0  0  0
    5.7952    2.1486    0.0000 C   0  0  0  0  0  0  0  0  0  0  0  0
    5.3817    2.8648    0.0000 O   0  0  0  0  0  0  0  0  0  0  0  0
    5.3817    1.4324    0.0000 C   0  0  0  0  0  0  0  0  0  0  0  0
    4.9682    2.1486    0.0000 C   0  0  0  0  0  0  0  0  0  0  0  0
    4.1412    2.1486    0.0000 C   0  0  0  0  0  0  0  0  0  0  0  0
    3.7271    2.8645    0.0000 C   0  0  0  0  0  0  0  0  0  0  0  0
    2.8989    2.8645    0.0000 C   0  0  0  0  0  0  0  0  0  0  0  0
    2.4847    2.1486    0.0000 C   0  0  0  0  0  0  0  0  0  0  0  0
    2.8989    1.4328    0.0000 C   0  0  0  0  0  0  0  0  0  0  0  0
    3.7271    1.4328    0.0000 C   0  0  0  0  0  0  0  0  0  0  0  0
    1.6565    2.1486    0.0000 C   0  0  0  0  0  0  0  0  0  0  0  0
    1.2424    1.4328    0.0000 C   0  0  0  0  0  0  0  0  0  0  0  0
    0.4141    1.4328    0.0000 C   0  0  0  0  0  0  0  0  0  0  0  0
    0.0000    2.1486    0.0000 N   0  0  0  0  0  0  0  0  0  0  0  0
    0.4141    2.8645    0.0000 C   0  0  0  0  0  0  0  0  0  0  0  0
    1.2424    2.8645    0.0000 C   0  0  0  0  0  0  0  0  0  0  0  0
    6.2087    1.4324    0.0000 C   0  0  0  0  0  0  0  0  0  0  0  0
    6.6222    0.7162    0.0000 C   0  0  0  0  0  0  0  0  0  0  0  0
    6.2087    0.0000    0.0000 N   0  0  0  0  0  0  0  0  0  0  0  0
    5.3817    0.0000    0.0000 C   0  0  0  0  0  0  0  0  0  0  0  0
    4.9682    0.7162    0.0000 C   0  0  0  0  0  0  0  0  0  0  0  0
    6.6222   -0.7162    0.0000 C   0  0  0  0  0  0  0  0  0  0  0  0
    6.2087   -1.4324    0.0000 O   0  0  0  0  0  0  0  0  0  0  0  0
    7.4492   -0.7162    0.0000 C   0  0  0  0  0  0  0  0  0  0  0  0
    7.8627   -1.4324    0.0000 C   0  0  0  0  0  0  0  0  0  0  0  0
    7.4492   -2.1486    0.0000 C   0  0  0  0  0  0  0  0  0  0  0  0
    7.8627   -2.8648    0.0000 C   0  0  0  0  0  0  0  0  0  0  0  0
    8.6897   -2.8648    0.0000 C   0  0  0  0  0  0  0  0  0  0  0  0
    9.1032   -2.1486    0.0000 C   0  0  0  0  0  0  0  0  0  0  0  0
    9.9302   -2.1486    0.0000 F   0  0  0  0  0  0  0  0  0  0  0  0
    8.6897   -1.4324    0.0000 C   0  0  0  0  0  0  0  0  0  0  0  0
  1  2  1  0
  2  3  2  0
  2  4  1  0
  4 22  1  0
  4  5  1  0
  5  6  1  0
  6 11  1  0
  6  7  2  0
  7  8  1  0
  8  9  2  0
  9 10  1  0
 10 11  2  0
  9 12  1  0
 12 17  1  0
 12 13  2  0
 13 14  1  0
 14 15  2  0
 15 16  1  0
 16 17  2  0
  4 18  1  0
 18 19  1  0
 19 20  1  0
 20 21  1  0
 21 22  1  0
 20 23  1  0
 23 24  2  0
 23 25  1  0
 25 26  1  0
 26 32  1  0
 26 27  2  0
 27 28  1  0
 28 29  2  0
 29 30  1  0
 30 31  1  0
 30 32  2  0
M  END
>  <SMILES>  (154) 
NC(=O)C1(Cc2ccc(-c3ccncc3)cc2)CCN(C(=O)Cc2cccc(F)c2)CC1

>  <CollectionName>  (154) 
emolecules

>  <LOG PLASMA PROTEIN BINDING (RAT) (% unbound)>  (154) 
1.0584639856

>  <Internal ID>  (154) 
Mol3069

>  <Source>  (154) 
Biogen

$$$$
474380
     RDKit          2D

 11 11  0  0  0  0  0  0  0  0999 V2000
   -2.2743    1.4324    0.0000 C   0  0  0  0  0  0  0  0  0  0  0  0
   -1.4473    1.4324    0.0000 C   0  0  0  0  0  0  0  0  0  0  0  0
   -1.0338    2.1486    0.0000 O   0  0  0  0  0  0  0  0  0  0  0  0
   -1.0338    0.7162    0.0000 N   0  0  0  0  0  0  0  0  0  0  0  0
   -0.2068    0.7162    0.0000 C   0  0  0  0  0  0  0  0  0  0  0  0
    0.2068    1.4324    0.0000 C   0  0  0  0  0  0  0  0  0  0  0  0
    1.0338    1.4324    0.0000 C   0  0  0  0  0  0  0  0  0  0  0  0
    1.4473    0.7162    0.0000 C   0  0  0  0  0  0  0  0  0  0  0  0
    2.2743    0.7162    0.0000 O   0  0  0  0  0  0  0  0  0  0  0  0
    1.0338   -0.0000    0.0000 C   0  0  0  0  0  0  0  0  0  0  0  0
    0.2068   -0.0000    0.0000 C   0  0  0  0  0  0  0  0  0  0  0  0
  1  2  1  0
  2  3  2  0
  2  4  1  0
  4  5  1  0
  5 11  2  0
  5  6  1  0
  6  7  2  0
  7  8  1  0
  8  9  1  0
  8 10  2  0
 10 11  1  0
M  END
>  <SMILES>  (155) 
CC(=O)Nc1ccc(O)cc1

>  <CollectionName>  (155) 
emolecules

>  <LOG PLASMA PROTEIN BINDING (RAT) (% unbound)>  (155) 
1.91698530509

>  <Internal ID>  (155) 
Mol3070

>  <Source>  (155) 
Biogen

$$$$
301492332
     RDKit          2D

 18 20  0  0  0  0  0  0  0  0999 V2000
    2.8655   -1.0341    0.0000 O   0  0  0  0  0  0  0  0  0  0  0  0
    2.8648   -0.2071    0.0000 C   0  0  0  0  0  0  0  0  0  0  0  0
    2.1482    0.2058    0.0000 N   0  0  0  0  0  0  0  0  0  0  0  0
    1.4324   -0.2083    0.0000 C   0  0  0  0  0  0  0  0  0  0  0  0
    1.4331   -1.0353    0.0000 C   0  0  0  0  0  0  0  0  0  0  0  0
    0.7173   -1.4494    0.0000 C   0  0  0  0  0  0  0  0  0  0  0  0
    0.0007   -1.0366    0.0000 N   0  0  0  0  0  0  0  0  0  0  0  0
    0.0000   -0.2096    0.0000 C   0  0  0  0  0  0  0  0  0  0  0  0
    0.7158    0.2046    0.0000 C   0  0  0  0  0  0  0  0  0  0  0  0
    3.5807    0.2071    0.0000 C   0  0  0  0  0  0  0  0  0  0  0  0
    3.5807    1.0353    0.0000 C   0  0  0  0  0  0  0  0  0  0  0  0
    4.2965    1.4494    0.0000 C   0  0  0  0  0  0  0  0  0  0  0  0
    5.0123    1.0353    0.0000 C   0  0  0  0  0  0  0  0  0  0  0  0
    5.7992    1.2897    0.0000 N   0  0  0  0  0  0  0  0  0  0  0  0
    6.2902    0.6212    0.0000 N   0  0  0  0  0  0  0  0  0  0  0  0
    5.7992   -0.0473    0.0000 C   0  0  0  0  0  0  0  0  0  0  0  0
    5.0123    0.2071    0.0000 C   0  0  0  0  0  0  0  0  0  0  0  0
    4.2965   -0.2071    0.0000 C   0  0  0  0  0  0  0  0  0  0  0  0
  1  2  2  0
  2  3  1  0
  3  4  1  0
  4  9  1  0
  4  5  1  0
  5  6  1  0
  6  7  1  0
  7  8  1  0
  8  9  1  0
  2 10  1  0
 10 18  1  0
 10 11  2  0
 11 12  1  0
 12 13  2  0
 13 17  1  0
 13 14  1  0
 14 15  1  0
 15 16  2  0
 16 17  1  0
 17 18  2  0
M  END
>  <SMILES>  (156) 
O=C(NC1CCNCC1)c1ccc2[nH]ncc2c1

>  <CollectionName>  (156) 
emolecules

>  <LOG PLASMA PROTEIN BINDING (RAT) (% unbound)>  (156) 
1.92695434999

>  <Internal ID>  (156) 
Mol3071

>  <Source>  (156) 
Biogen

$$$$
36367041
     RDKit          2D

 31 34  0  0  0  0  0  0  0  0999 V2000
    4.1450   -4.2954    0.0000 C   0  0  0  0  0  0  0  0  0  0  0  0
    3.7309   -3.5796    0.0000 C   0  0  0  0  0  0  0  0  0  0  0  0
    2.9039   -3.5803    0.0000 C   0  0  0  0  0  0  0  0  0  0  0  0
    2.4897   -2.8645    0.0000 C   0  0  0  0  0  0  0  0  0  0  0  0
    2.9026   -2.1479    0.0000 C   0  0  0  0  0  0  0  0  0  0  0  0
    3.7296   -2.1472    0.0000 C   0  0  0  0  0  0  0  0  0  0  0  0
    4.1425   -1.4306    0.0000 C   0  0  0  0  0  0  0  0  0  0  0  0
    3.7284   -0.7148    0.0000 N   0  0  0  0  0  0  0  0  0  0  0  0
    4.1412    0.0018    0.0000 N   0  0  0  0  0  0  0  0  0  0  0  0
    3.7271    0.7176    0.0000 C   0  0  0  0  0  0  0  0  0  0  0  0
    2.8989    0.7176    0.0000 C   0  0  0  0  0  0  0  0  0  0  0  0
    2.4847    1.4335    0.0000 C   0  0  0  0  0  0  0  0  0  0  0  0
    2.8989    2.1493    0.0000 N   0  0  0  0  0  0  0  0  0  0  0  0
    3.7271    2.1493    0.0000 C   0  0  0  0  0  0  0  0  0  0  0  0
    4.1412    2.8652    0.0000 O   0  0  0  0  0  0  0  0  0  0  0  0
    4.9682    2.8645    0.0000 C   0  0  0  0  0  0  0  0  0  0  0  0
    5.3824    3.5803    0.0000 C   0  0  0  0  0  0  0  0  0  0  0  0
    6.2094    3.5796    0.0000 C   0  0  0  0  0  0  0  0  0  0  0  0
    6.6235    4.2954    0.0000 C   0  0  0  0  0  0  0  0  0  0  0  0
    7.4505    4.2947    0.0000 C   0  0  0  0  0  0  0  0  0  0  0  0
    7.8634    3.5781    0.0000 C   0  0  0  0  0  0  0  0  0  0  0  0
    7.4492    2.8623    0.0000 C   0  0  0  0  0  0  0  0  0  0  0  0
    6.6222    2.8630    0.0000 N   0  0  0  0  0  0  0  0  0  0  0  0
    4.1412    1.4335    0.0000 N   0  0  0  0  0  0  0  0  0  0  0  0
    1.6565    1.4335    0.0000 N   0  0  0  0  0  0  0  0  0  0  0  0
    1.2424    0.7176    0.0000 C   0  0  0  0  0  0  0  0  0  0  0  0
    0.4141    0.7176    0.0000 C   0  0  0  0  0  0  0  0  0  0  0  0
    0.0000    1.4335    0.0000 O   0  0  0  0  0  0  0  0  0  0  0  0
    0.4141    2.1493    0.0000 C   0  0  0  0  0  0  0  0  0  0  0  0
    1.2424    2.1493    0.0000 C   0  0  0  0  0  0  0  0  0  0  0  0
    4.1437   -2.8630    0.0000 C   0  0  0  0  0  0  0  0  0  0  0  0
  1  2  1  0
  2 31  2  0
  2  3  1  0
  3  4  2  0
  4  5  1  0
  5  6  2  0
  6  7  1  0
  7  8  2  0
  8  9  1  0
  9 10  1  0
 10 24  1  0
 10 11  2  0
 11 12  1  0
 12 13  2  0
 13 14  1  0
 14 15  1  0
 15 16  1  0
 16 17  1  0
 17 18  1  0
 18 23  1  0
 18 19  2  0
 19 20  1  0
 20 21  2  0
 21 22  1  0
 22 23  2  0
 14 24  2  0
 12 25  1  0
 25 30  1  0
 25 26  1  0
 26 27  1  0
 27 28  1  0
 28 29  1  0
 29 30  1  0
  6 31  1  0
M  END
>  <SMILES>  (157) 
Cc1cccc(/C=N/Nc2cc(N3CCOCC3)nc(OCCc3ccccn3)n2)c1

>  <CollectionName>  (157) 
emolecules

>  <LOG PLASMA PROTEIN BINDING (RAT) (% unbound)>  (157) 
-0.275724130399

>  <Internal ID>  (157) 
Mol3072

>  <Source>  (157) 
Biogen

$$$$
30599464
     RDKit          2D

 25 27  0  0  0  0  0  0  0  0999 V2000
    6.2095   -3.0480    0.0000 C   0  0  0  0  0  0  0  0  0  0  0  0
    6.7653   -2.4356    0.0000 C   0  0  0  0  0  0  0  0  0  0  0  0
    6.5129   -1.6481    0.0000 N   0  0  0  0  0  0  0  0  0  0  0  0
    5.7260   -1.3937    0.0000 C   0  0  0  0  0  0  0  0  0  0  0  0
    5.0102   -1.8078    0.0000 C   0  0  0  0  0  0  0  0  0  0  0  0
    4.2943   -1.3937    0.0000 C   0  0  0  0  0  0  0  0  0  0  0  0
    4.2943   -0.5655    0.0000 C   0  0  0  0  0  0  0  0  0  0  0  0
    3.5785   -0.1513    0.0000 N   0  0  0  0  0  0  0  0  0  0  0  0
    3.5792    0.6757    0.0000 C   0  0  0  0  0  0  0  0  0  0  0  0
    4.2958    1.0885    0.0000 O   0  0  0  0  0  0  0  0  0  0  0  0
    2.8634    1.0898    0.0000 C   0  0  0  0  0  0  0  0  0  0  0  0
    2.1468    0.6769    0.0000 C   0  0  0  0  0  0  0  0  0  0  0  0
    1.4310    1.0910    0.0000 C   0  0  0  0  0  0  0  0  0  0  0  0
    1.4317    1.9180    0.0000 C   0  0  0  0  0  0  0  0  0  0  0  0
    2.1482    2.3309    0.0000 C   0  0  0  0  0  0  0  0  0  0  0  0
    2.8641    1.9168    0.0000 C   0  0  0  0  0  0  0  0  0  0  0  0
    0.7158    2.3322    0.0000 C   0  0  0  0  0  0  0  0  0  0  0  0
    1.1300    3.0480    0.0000 C   0  0  0  0  0  0  0  0  0  0  0  0
    0.0000    2.7463    0.0000 C   0  0  0  0  0  0  0  0  0  0  0  0
    0.3017    1.6163    0.0000 C   0  0  0  0  0  0  0  0  0  0  0  0
    5.0102   -0.1513    0.0000 C   0  0  0  0  0  0  0  0  0  0  0  0
    5.7260   -0.5655    0.0000 C   0  0  0  0  0  0  0  0  0  0  0  0
    6.5129   -0.3111    0.0000 O   0  0  0  0  0  0  0  0  0  0  0  0
    7.0039   -0.9796    0.0000 C   0  0  0  0  0  0  0  0  0  0  0  0
    7.8309   -0.9796    0.0000 O   0  0  0  0  0  0  0  0  0  0  0  0
  1  2  1  0
  2  3  1  0
  3 24  1  0
  3  4  1  0
  4 22  2  0
  4  5  1  0
  5  6  2  0
  6  7  1  0
  7  8  1  0
  8  9  1  0
  9 10  2  0
  9 11  1  0
 11 16  1  0
 11 12  2  0
 12 13  1  0
 13 14  2  0
 14 15  1  0
 15 16  2  0
 14 17  1  0
 17 18  1  0
 17 19  1  0
 17 20  1  0
  7 21  2  0
 21 22  1  0
 22 23  1  0
 23 24  1  0
 24 25  2  0
M  END
>  <SMILES>  (158) 
CCn1c(=O)oc2cc(NC(=O)c3ccc(C(C)(C)C)cc3)ccc21

>  <CollectionName>  (158) 
emolecules

>  <LOG PLASMA PROTEIN BINDING (RAT) (% unbound)>  (158) 
0.180412632838

>  <Internal ID>  (158) 
Mol3073

>  <Source>  (158) 
Biogen

$$$$
16382857
     RDKit          2D

 33 36  0  0  0  0  0  0  0  0999 V2000
    2.1889    3.3143    0.0000 C   0  0  0  0  0  0  0  0  0  0  0  0
    2.9022    2.8957    0.0000 O   0  0  0  0  0  0  0  0  0  0  0  0
    2.8963    2.0687    0.0000 C   0  0  0  0  0  0  0  0  0  0  0  0
    2.1771    1.6603    0.0000 C   0  0  0  0  0  0  0  0  0  0  0  0
    2.1712    0.8334    0.0000 C   0  0  0  0  0  0  0  0  0  0  0  0
    2.8844    0.4148    0.0000 C   0  0  0  0  0  0  0  0  0  0  0  0
    2.8785   -0.4122    0.0000 O   0  0  0  0  0  0  0  0  0  0  0  0
    3.5918   -0.8308    0.0000 C   0  0  0  0  0  0  0  0  0  0  0  0
    3.5859   -1.6578    0.0000 C   0  0  0  0  0  0  0  0  0  0  0  0
    4.3017   -2.0719    0.0000 N   0  0  0  0  0  0  0  0  0  0  0  0
    4.3017   -2.9002    0.0000 C   0  0  0  0  0  0  0  0  0  0  0  0
    3.5859   -3.3143    0.0000 C   0  0  0  0  0  0  0  0  0  0  0  0
    2.8641   -2.9002    0.0000 C   0  0  0  0  0  0  0  0  0  0  0  0
    2.1482   -3.3143    0.0000 C   0  0  0  0  0  0  0  0  0  0  0  0
    1.4324   -2.9002    0.0000 C   0  0  0  0  0  0  0  0  0  0  0  0
    0.7166   -3.3143    0.0000 O   0  0  0  0  0  0  0  0  0  0  0  0
    0.0000   -2.9014    0.0000 C   0  0  0  0  0  0  0  0  0  0  0  0
    1.4324   -2.0719    0.0000 C   0  0  0  0  0  0  0  0  0  0  0  0
    0.7166   -1.6578    0.0000 O   0  0  0  0  0  0  0  0  0  0  0  0
    0.7173   -0.8308    0.0000 C   0  0  0  0  0  0  0  0  0  0  0  0
    2.1482   -1.6578    0.0000 C   0  0  0  0  0  0  0  0  0  0  0  0
    2.8641   -2.0719    0.0000 C   0  0  0  0  0  0  0  0  0  0  0  0
    5.0175   -1.6578    0.0000 C   0  0  0  0  0  0  0  0  0  0  0  0
    5.0168   -0.8308    0.0000 O   0  0  0  0  0  0  0  0  0  0  0  0
    5.7341   -2.0707    0.0000 C   0  0  0  0  0  0  0  0  0  0  0  0
    5.7348   -2.8977    0.0000 C   0  0  0  0  0  0  0  0  0  0  0  0
    6.4514   -3.3106    0.0000 C   0  0  0  0  0  0  0  0  0  0  0  0
    7.1672   -2.8964    0.0000 C   0  0  0  0  0  0  0  0  0  0  0  0
    7.1665   -2.0694    0.0000 C   0  0  0  0  0  0  0  0  0  0  0  0
    7.8823   -1.6553    0.0000 Cl  0  0  0  0  0  0  0  0  0  0  0  0
    6.4499   -1.6566    0.0000 C   0  0  0  0  0  0  0  0  0  0  0  0
    3.6036    0.8231    0.0000 C   0  0  0  0  0  0  0  0  0  0  0  0
    3.6095    1.6501    0.0000 C   0  0  0  0  0  0  0  0  0  0  0  0
  1  2  1  0
  2  3  1  0
  3 33  2  0
  3  4  1  0
  4  5  2  0
  5  6  1  0
  6  7  1  0
  7  8  1  0
  8  9  1  0
  9 22  1  0
  9 10  1  0
 10 11  1  0
 11 12  1  0
 12 13  1  0
 13 22  2  0
 13 14  1  0
 14 15  2  0
 15 16  1  0
 16 17  1  0
 15 18  1  0
 18 19  1  0
 19 20  1  0
 18 21  2  0
 21 22  1  0
 10 23  1  0
 23 24  2  0
 23 25  1  0
 25 31  1  0
 25 26  2  0
 26 27  1  0
 27 28  2  0
 28 29  1  0
 29 30  1  0
 29 31  2  0
  6 32  2  0
 32 33  1  0
M  END
>  <SMILES>  (159) 
COc1ccc(OCC2c3cc(OC)c(OC)cc3CCN2C(=O)c2cccc(Cl)c2)cc1

>  <CollectionName>  (159) 
emolecules

>  <LOG PLASMA PROTEIN BINDING (RAT) (% unbound)>  (159) 
0.232233521115

>  <Internal ID>  (159) 
Mol3074

>  <Source>  (159) 
Biogen

$$$$
320359100
     RDKit          2D

 41 46  0  0  0  0  0  0  0  0999 V2000
    0.7173    4.7892    0.0000 O   0  0  0  0  0  0  0  0  0  0  0  0
    0.7166    3.9622    0.0000 C   0  0  0  0  0  0  0  0  0  0  0  0
    0.0000    3.5493    0.0000 O   0  0  0  0  0  0  0  0  0  0  0  0
    1.4324    3.5480    0.0000 C   0  0  0  0  0  0  0  0  0  0  0  0
    1.4324    2.7198    0.0000 C   0  0  0  0  0  0  0  0  0  0  0  0
    2.1482    2.3057    0.0000 C   0  0  0  0  0  0  0  0  0  0  0  0
    2.8641    2.7198    0.0000 C   0  0  0  0  0  0  0  0  0  0  0  0
    3.6509    2.4654    0.0000 N   0  0  0  0  0  0  0  0  0  0  0  0
    4.1420    3.1339    0.0000 C   0  0  0  0  0  0  0  0  0  0  0  0
    4.9690    3.1339    0.0000 C   0  0  0  0  0  0  0  0  0  0  0  0
    5.3825    2.4177    0.0000 N   0  0  0  0  0  0  0  0  0  0  0  0
    6.2095    2.4177    0.0000 C   0  0  0  0  0  0  0  0  0  0  0  0
    6.6230    1.7015    0.0000 C   0  0  0  0  0  0  0  0  0  0  0  0
    6.2095    0.9853    0.0000 C   0  0  0  0  0  0  0  0  0  0  0  0
    5.3825    0.9853    0.0000 C   0  0  0  0  0  0  0  0  0  0  0  0
    4.9690    1.7015    0.0000 C   0  0  0  0  0  0  0  0  0  0  0  0
    6.6230    0.2691    0.0000 C   0  0  0  0  0  0  0  0  0  0  0  0
    7.4500    0.2691    0.0000 C   0  0  0  0  0  0  0  0  0  0  0  0
    7.8635   -0.4471    0.0000 C   0  0  0  0  0  0  0  0  0  0  0  0
    7.4500   -1.1633    0.0000 C   0  0  0  0  0  0  0  0  0  0  0  0
    6.6230   -1.1633    0.0000 C   0  0  0  0  0  0  0  0  0  0  0  0
    6.2095   -1.8795    0.0000 O   0  0  0  0  0  0  0  0  0  0  0  0
    5.3825   -1.8795    0.0000 C   0  0  0  0  0  0  0  0  0  0  0  0
    4.9690   -2.5957    0.0000 C   0  0  0  0  0  0  0  0  0  0  0  0
    5.3825   -3.3119    0.0000 C   0  0  0  0  0  0  0  0  0  0  0  0
    4.9690   -4.0281    0.0000 C   0  0  0  0  0  0  0  0  0  0  0  0
    4.1420   -4.0281    0.0000 C   0  0  0  0  0  0  0  0  0  0  0  0
    3.7285   -3.3119    0.0000 C   0  0  0  0  0  0  0  0  0  0  0  0
    4.1420   -2.5957    0.0000 C   0  0  0  0  0  0  0  0  0  0  0  0
    3.7285   -1.8795    0.0000 F   0  0  0  0  0  0  0  0  0  0  0  0
    3.7285   -4.7443    0.0000 C   0  0  0  0  0  0  0  0  0  0  0  0
    3.3150   -5.4605    0.0000 N   0  0  0  0  0  0  0  0  0  0  0  0
    6.2095   -0.4471    0.0000 N   0  0  0  0  0  0  0  0  0  0  0  0
    3.6509    3.8024    0.0000 N   0  0  0  0  0  0  0  0  0  0  0  0
    3.9033    4.5900    0.0000 C   0  0  0  0  0  0  0  0  0  0  0  0
    4.7116    4.7651    0.0000 C   0  0  0  0  0  0  0  0  0  0  0  0
    5.1592    5.4605    0.0000 C   0  0  0  0  0  0  0  0  0  0  0  0
    5.8546    5.0129    0.0000 C   0  0  0  0  0  0  0  0  0  0  0  0
    5.4069    4.3175    0.0000 O   0  0  0  0  0  0  0  0  0  0  0  0
    2.8641    3.5480    0.0000 C   0  0  0  0  0  0  0  0  0  0  0  0
    2.1482    3.9622    0.0000 C   0  0  0  0  0  0  0  0  0  0  0  0
  1  2  1  0
  2  3  2  0
  2  4  1  0
  4 41  2  0
  4  5  1  0
  5  6  2  0
  6  7  1  0
  7 40  2  0
  7  8  1  0
  8  9  2  0
  9 10  1  0
 10 11  1  0
 11 16  1  0
 11 12  1  0
 12 13  1  0
 13 14  1  0
 14 15  1  0
 15 16  1  0
 14 17  1  0
 17 33  1  0
 17 18  2  0
 18 19  1  0
 19 20  2  0
 20 21  1  0
 21 22  1  0
 22 23  1  0
 23 24  1  0
 24 29  1  0
 24 25  2  0
 25 26  1  0
 26 27  2  0
 27 28  1  0
 28 29  2  0
 29 30  1  0
 27 31  1  0
 31 32  3  0
 21 33  2  0
  9 34  1  0
 34 35  1  0
 35 36  1  0
 36 39  1  0
 36 37  1  0
 37 38  1  0
 38 39  1  0
 34 40  1  0
 40 41  1  0
M  END
>  <SMILES>  (160) 
N#Cc1ccc(COc2cccc(C3CCN(Cc4nc5ccc(C(=O)O)cc5n4CC4CCO4)CC3)n2)c(F)c1

>  <CollectionName>  (160) 
emolecules

>  <LOG PLASMA PROTEIN BINDING (RAT) (% unbound)>  (160) 
0.31217735644

>  <Internal ID>  (160) 
Mol3075

>  <Source>  (160) 
Biogen

$$$$
8318595
     RDKit          2D

 28 30  0  0  1  0  0  0  0  0999 V2000
    0.1940    2.9931    0.0000 C   0  0  0  0  0  0  0  0  0  0  0  0
    0.6068    2.2765    0.0000 C   0  0  0  0  0  0  0  0  0  0  0  0
    0.1927    1.5607    0.0000 C   0  0  0  0  0  0  0  0  0  0  0  0
    1.4338    2.2758    0.0000 C   0  0  0  0  0  0  0  0  0  0  0  0
    1.4346    3.1028    0.0000 C   0  0  0  0  0  0  0  0  0  0  0  0
    2.1511    3.5157    0.0000 O   0  0  0  0  0  0  0  0  0  0  0  0
    1.4331    1.4488    0.0000 N   0  0  0  0  0  0  0  0  0  0  0  0
    2.1490    1.0347    0.0000 C   0  0  0  0  0  0  0  0  0  0  0  0
    2.1490    0.2064    0.0000 N   0  0  0  0  0  0  0  0  0  0  0  0
    2.8648   -0.2077    0.0000 C   0  0  0  0  0  0  0  0  0  0  0  0
    2.8648   -1.0347    0.0000 N   0  0  0  0  0  0  0  0  0  0  0  0
    2.1486   -1.4482    0.0000 C   0  0  0  0  0  0  0  0  0  0  0  0
    2.1486   -2.2752    0.0000 C   0  0  0  0  0  0  0  0  0  0  0  0
    1.4324   -2.6887    0.0000 C   0  0  0  0  0  0  0  0  0  0  0  0
    1.4324   -3.5157    0.0000 N   0  0  0  0  0  0  0  0  0  0  0  0
    0.7162   -2.2752    0.0000 C   0  0  0  0  0  0  0  0  0  0  0  0
    0.7162   -1.4482    0.0000 C   0  0  0  0  0  0  0  0  0  0  0  0
    0.0000   -1.0347    0.0000 Cl  0  0  0  0  0  0  0  0  0  0  0  0
    1.4324   -1.0347    0.0000 C   0  0  0  0  0  0  0  0  0  0  0  0
    3.5807    0.2064    0.0000 C   0  0  0  0  0  0  0  0  0  0  0  0
    4.3675   -0.0480    0.0000 N   0  0  0  0  0  0  0  0  0  0  0  0
    4.8585    0.6206    0.0000 C   0  0  0  0  0  0  0  0  0  0  0  0
    4.3675    1.2891    0.0000 N   0  0  0  0  0  0  0  0  0  0  0  0
    4.6199    2.0766    0.0000 C   0  0  0  0  0  0  0  0  0  0  0  0
    5.4281    2.2518    0.0000 C   0  0  0  0  0  0  0  0  0  0  0  0
    4.0641    2.6890    0.0000 C   0  0  0  0  0  0  0  0  0  0  0  0
    3.5807    1.0347    0.0000 C   0  0  0  0  0  0  0  0  0  0  0  0
    2.8648    1.4488    0.0000 N   0  0  0  0  0  0  0  0  0  0  0  0
  1  2  1  0
  2  3  1  0
  2  4  1  0
  4  5  1  6
  5  6  1  0
  4  7  1  0
  7  8  1  0
  8 28  2  0
  8  9  1  0
  9 10  2  0
 10 11  1  0
 11 12  1  0
 12 19  1  0
 12 13  2  0
 13 14  1  0
 14 15  1  0
 14 16  2  0
 16 17  1  0
 17 18  1  0
 17 19  2  0
 10 20  1  0
 20 27  2  0
 20 21  1  0
 21 22  2  0
 22 23  1  0
 23 24  1  0
 24 25  1  0
 24 26  1  0
 23 27  1  0
 27 28  1  0
M  END
>  <SMILES>  (161) 
CC(C)[C@H](CO)Nc1nc(Nc2cc(N)cc(Cl)c2)c2ncn(C(C)C)c2n1

>  <CollectionName>  (161) 
emolecules

>  <LOG PLASMA PROTEIN BINDING (RAT) (% unbound)>  (161) 
-0.0990869322623

>  <Internal ID>  (161) 
Mol3076

>  <Source>  (161) 
Biogen

$$$$
315259678
     RDKit          2D

 18 20  0  0  0  0  0  0  0  0999 V2000
    1.4310   -0.8258    0.0000 O   0  0  0  0  0  0  0  0  0  0  0  0
    2.1475   -0.4129    0.0000 C   0  0  0  0  0  0  0  0  0  0  0  0
    2.1482    0.4141    0.0000 N   0  0  0  0  0  0  0  0  0  0  0  0
    1.4324    0.8282    0.0000 C   0  0  0  0  0  0  0  0  0  0  0  0
    0.7158    0.4154    0.0000 C   0  0  0  0  0  0  0  0  0  0  0  0
    0.0000    0.8295    0.0000 C   0  0  0  0  0  0  0  0  0  0  0  0
    0.0007    1.6565    0.0000 N   0  0  0  0  0  0  0  0  0  0  0  0
    0.7173    2.0694    0.0000 C   0  0  0  0  0  0  0  0  0  0  0  0
    1.4331    1.6552    0.0000 C   0  0  0  0  0  0  0  0  0  0  0  0
    2.8634   -0.8270    0.0000 C   0  0  0  0  0  0  0  0  0  0  0  0
    2.8634   -1.6552    0.0000 C   0  0  0  0  0  0  0  0  0  0  0  0
    3.5792   -2.0694    0.0000 C   0  0  0  0  0  0  0  0  0  0  0  0
    4.2951   -1.6552    0.0000 C   0  0  0  0  0  0  0  0  0  0  0  0
    5.0819   -1.9096    0.0000 C   0  0  0  0  0  0  0  0  0  0  0  0
    5.5729   -1.2411    0.0000 N   0  0  0  0  0  0  0  0  0  0  0  0
    5.0819   -0.5726    0.0000 N   0  0  0  0  0  0  0  0  0  0  0  0
    4.2951   -0.8270    0.0000 C   0  0  0  0  0  0  0  0  0  0  0  0
    3.5792   -0.4129    0.0000 C   0  0  0  0  0  0  0  0  0  0  0  0
  1  2  2  0
  2  3  1  0
  3  4  1  0
  4  9  1  0
  4  5  1  0
  5  6  1  0
  6  7  1  0
  7  8  1  0
  8  9  1  0
  2 10  1  0
 10 18  1  0
 10 11  2  0
 11 12  1  0
 12 13  2  0
 13 17  1  0
 13 14  1  0
 14 15  2  0
 15 16  1  0
 16 17  1  0
 17 18  2  0
M  END
>  <SMILES>  (162) 
O=C(NC1CCNCC1)c1ccc2cn[nH]c2c1

>  <CollectionName>  (162) 
emolecules

>  <LOG PLASMA PROTEIN BINDING (RAT) (% unbound)>  (162) 
1.70808081047

>  <Internal ID>  (162) 
Mol3077

>  <Source>  (162) 
Biogen

$$$$
26418448
     RDKit          2D

 37 40  0  0  1  0  0  0  0  0999 V2000
    1.1285   -5.2486    0.0000 C   0  0  0  0  0  0  0  0  0  0  0  0
    0.7179   -4.5307    0.0000 C   0  0  0  0  0  0  0  0  0  0  0  0
    0.0000   -4.9413    0.0000 C   0  0  0  0  0  0  0  0  0  0  0  0
    0.3072   -3.8128    0.0000 C   0  0  0  0  0  0  0  0  0  0  0  0
    1.4357   -4.1201    0.0000 O   0  0  0  0  0  0  0  0  0  0  0  0
    1.4390   -3.2931    0.0000 C   0  0  0  0  0  0  0  0  0  0  0  0
    0.7245   -2.8767    0.0000 O   0  0  0  0  0  0  0  0  0  0  0  0
    2.1569   -2.8825    0.0000 N   0  0  0  0  0  0  0  0  0  0  0  0
    2.9110   -3.2218    0.0000 C   0  0  0  0  0  0  0  0  0  0  0  0
    3.4669   -2.6095    0.0000 C   0  0  0  0  0  0  0  0  0  0  0  0
    3.0562   -1.8916    0.0000 C   0  0  0  0  0  0  0  0  0  0  0  0
    2.2466   -2.0603    0.0000 C   0  0  0  0  0  0  0  0  0  0  0  0
    1.6343   -1.5045    0.0000 C   0  0  0  0  0  0  0  0  0  0  0  0
    0.8467   -1.7569    0.0000 O   0  0  0  0  0  0  0  0  0  0  0  0
    1.8094   -0.6963    0.0000 N   0  0  0  0  0  0  0  0  0  0  0  0
    2.5970   -0.4439    0.0000 C   0  0  0  0  0  0  0  0  0  0  0  0
    2.7721    0.3644    0.0000 C   0  0  0  0  0  0  0  0  0  0  0  0
    2.1598    0.9202    0.0000 C   0  0  0  0  0  0  0  0  0  0  0  0
    1.3722    0.6678    0.0000 C   0  0  0  0  0  0  0  0  0  0  0  0
    1.1971   -0.1405    0.0000 C   0  0  0  0  0  0  0  0  0  0  0  0
    2.3349    1.7284    0.0000 C   0  0  0  0  0  0  0  0  0  0  0  0
    1.7226    2.2843    0.0000 O   0  0  0  0  0  0  0  0  0  0  0  0
    3.1225    1.9808    0.0000 N   0  0  0  0  0  0  0  0  0  0  0  0
    3.2977    2.7891    0.0000 C   0  0  0  0  0  0  0  0  0  0  0  0
    2.4894    2.9643    0.0000 C   0  0  0  0  0  0  0  0  0  0  0  0
    2.2370    3.7518    0.0000 C   0  0  0  0  0  0  0  0  0  0  0  0
    2.7280    4.4203    0.0000 C   0  0  0  0  0  0  0  0  0  0  0  0
    2.2370    5.0888    0.0000 N   0  0  0  0  0  0  0  0  0  0  0  0
    1.4502    4.8344    0.0000 C   0  0  0  0  0  0  0  0  0  0  0  0
    0.7343    5.2486    0.0000 C   0  0  0  0  0  0  0  0  0  0  0  0
    0.0185    4.8344    0.0000 C   0  0  0  0  0  0  0  0  0  0  0  0
    0.0185    4.0062    0.0000 C   0  0  0  0  0  0  0  0  0  0  0  0
    0.7343    3.5921    0.0000 C   0  0  0  0  0  0  0  0  0  0  0  0
    1.4502    4.0062    0.0000 C   0  0  0  0  0  0  0  0  0  0  0  0
    4.1059    2.6139    0.0000 C   0  0  0  0  0  0  0  0  0  0  0  0
    4.6617    3.2263    0.0000 O   0  0  0  0  0  0  0  0  0  0  0  0
    4.3583    1.8264    0.0000 O   0  0  0  0  0  0  0  0  0  0  0  0
  1  2  1  0
  2  3  1  0
  2  4  1  0
  2  5  1  0
  5  6  1  0
  6  7  2  0
  6  8  1  0
  8 12  1  0
  8  9  1  0
  9 10  1  0
 10 11  1  0
 11 12  1  0
 12 13  1  6
 13 14  2  0
 13 15  1  0
 15 20  1  0
 15 16  1  0
 16 17  1  0
 17 18  1  0
 18 19  1  0
 19 20  1  0
 18 21  1  0
 21 22  2  0
 21 23  1  0
 23 24  1  0
 24 25  1  1
 25 26  1  0
 26 34  1  0
 26 27  2  0
 27 28  1  0
 28 29  1  0
 29 34  2  0
 29 30  1  0
 30 31  2  0
 31 32  1  0
 32 33  2  0
 33 34  1  0
 24 35  1  0
 35 36  1  0
 35 37  2  0
M  END
>  <SMILES>  (163) 
CC(C)(C)OC(=O)N1CCC[C@H]1C(=O)N1CCC(C(=O)N[C@@H](Cc2c[nH]c3ccccc23)C(=O)O)CC1

>  <CollectionName>  (163) 
emolecules

>  <LOG PLASMA PROTEIN BINDING (RAT) (% unbound)>  (163) 
1.84255307721

>  <Internal ID>  (163) 
Mol3078

>  <Source>  (163) 
Biogen

$$$$
1988603
     RDKit          2D

 36 40  0  0  0  0  0  0  0  0999 V2000
    5.6162   -2.2704    0.0000 O   0  0  0  0  0  0  0  0  0  0  0  0
    4.9030   -1.8517    0.0000 C   0  0  0  0  0  0  0  0  0  0  0  0
    4.1838   -2.2601    0.0000 N   0  0  0  0  0  0  0  0  0  0  0  0
    4.1779   -3.0871    0.0000 C   0  0  0  0  0  0  0  0  0  0  0  0
    4.8938   -3.5012    0.0000 C   0  0  0  0  0  0  0  0  0  0  0  0
    4.8938   -4.3295    0.0000 C   0  0  0  0  0  0  0  0  0  0  0  0
    4.1779   -4.7436    0.0000 C   0  0  0  0  0  0  0  0  0  0  0  0
    3.4562   -4.3295    0.0000 C   0  0  0  0  0  0  0  0  0  0  0  0
    3.4562   -3.5012    0.0000 C   0  0  0  0  0  0  0  0  0  0  0  0
    2.7403   -3.0871    0.0000 O   0  0  0  0  0  0  0  0  0  0  0  0
    2.0245   -3.5012    0.0000 C   0  0  0  0  0  0  0  0  0  0  0  0
    2.0245   -4.3295    0.0000 C   0  0  0  0  0  0  0  0  0  0  0  0
    2.7403   -4.7436    0.0000 C   0  0  0  0  0  0  0  0  0  0  0  0
    2.7403   -5.5706    0.0000 O   0  0  0  0  0  0  0  0  0  0  0  0
    1.3086   -3.0871    0.0000 C   0  0  0  0  0  0  0  0  0  0  0  0
    0.5528   -3.4228    0.0000 N   0  0  0  0  0  0  0  0  0  0  0  0
    0.0000   -2.8078    0.0000 N   0  0  0  0  0  0  0  0  0  0  0  0
    0.4141   -2.0919    0.0000 N   0  0  0  0  0  0  0  0  0  0  0  0
    1.2229   -2.2646    0.0000 N   0  0  0  0  0  0  0  0  0  0  0  0
    4.9089   -1.0248    0.0000 C   0  0  0  0  0  0  0  0  0  0  0  0
    4.1956   -0.6062    0.0000 C   0  0  0  0  0  0  0  0  0  0  0  0
    4.2016    0.2208    0.0000 C   0  0  0  0  0  0  0  0  0  0  0  0
    4.9207    0.6292    0.0000 C   0  0  0  0  0  0  0  0  0  0  0  0
    4.9266    1.4562    0.0000 O   0  0  0  0  0  0  0  0  0  0  0  0
    5.6457    1.8645    0.0000 C   0  0  0  0  0  0  0  0  0  0  0  0
    5.6516    2.6915    0.0000 C   0  0  0  0  0  0  0  0  0  0  0  0
    6.3708    3.0999    0.0000 C   0  0  0  0  0  0  0  0  0  0  0  0
    6.3767    3.9269    0.0000 C   0  0  0  0  0  0  0  0  0  0  0  0
    7.0958    4.3352    0.0000 C   0  0  0  0  0  0  0  0  0  0  0  0
    7.1017    5.1622    0.0000 C   0  0  0  0  0  0  0  0  0  0  0  0
    7.8209    5.5706    0.0000 C   0  0  0  0  0  0  0  0  0  0  0  0
    8.5341    5.1520    0.0000 C   0  0  0  0  0  0  0  0  0  0  0  0
    8.5282    4.3250    0.0000 C   0  0  0  0  0  0  0  0  0  0  0  0
    7.8091    3.9166    0.0000 C   0  0  0  0  0  0  0  0  0  0  0  0
    5.6339    0.2106    0.0000 C   0  0  0  0  0  0  0  0  0  0  0  0
    5.6280   -0.6164    0.0000 C   0  0  0  0  0  0  0  0  0  0  0  0
  1  2  2  0
  2  3  1  0
  3  4  1  0
  4  9  1  0
  4  5  2  0
  5  6  1  0
  6  7  2  0
  7  8  1  0
  8 13  1  0
  8  9  2  0
  9 10  1  0
 10 11  1  0
 11 12  2  0
 12 13  1  0
 13 14  2  0
 11 15  1  0
 15 19  1  0
 15 16  2  0
 16 17  1  0
 17 18  2  0
 18 19  1  0
  2 20  1  0
 20 36  1  0
 20 21  2  0
 21 22  1  0
 22 23  2  0
 23 24  1  0
 24 25  1  0
 25 26  1  0
 26 27  1  0
 27 28  1  0
 28 29  1  0
 29 34  1  0
 29 30  2  0
 30 31  1  0
 31 32  2  0
 32 33  1  0
 33 34  2  0
 23 35  1  0
 35 36  2  0
M  END
>  <SMILES>  (164) 
O=C(Nc1cccc2c(=O)cc(-c3nnn[nH]3)oc12)c1ccc(OCCCCc2ccccc2)cc1

>  <CollectionName>  (164) 
emolecules

>  <LOG PLASMA PROTEIN BINDING (RAT) (% unbound)>  (164) 
0.772248339972

>  <Internal ID>  (164) 
Mol3079

>  <Source>  (164) 
Biogen

$$$$
28220722
     RDKit          2D

 12 12  0  0  0  0  0  0  0  0999 V2000
   -2.3823    2.4383    0.0000 C   0  0  0  0  0  0  0  0  0  0  0  0
   -1.5553    2.4383    0.0000 C   0  0  0  0  0  0  0  0  0  0  0  0
   -1.1418    3.1545    0.0000 O   0  0  0  0  0  0  0  0  0  0  0  0
   -1.1418    1.7221    0.0000 N   0  0  0  0  0  0  0  0  0  0  0  0
   -0.3148    1.7221    0.0000 C   0  0  0  0  0  0  0  0  0  0  0  0
    0.1713    2.3911    0.0000 N   0  0  0  0  0  0  0  0  0  0  0  0
    0.9578    2.1356    0.0000 C   0  0  0  0  0  0  0  0  0  0  0  0
    0.9578    1.3086    0.0000 C   0  0  0  0  0  0  0  0  0  0  0  0
    0.1713    1.0530    0.0000 S   0  0  0  0  0  0  0  0  0  0  0  0
    1.6268    0.8225    0.0000 C   0  0  0  0  0  0  0  0  0  0  0  0
    1.5404   -0.0000    0.0000 O   0  0  0  0  0  0  0  0  0  0  0  0
    2.3823    1.1588    0.0000 O   0  0  0  0  0  0  0  0  0  0  0  0
  1  2  1  0
  2  3  2  0
  2  4  1  0
  4  5  1  0
  5  9  1  0
  5  6  2  0
  6  7  1  0
  7  8  2  0
  8  9  1  0
  8 10  1  0
 10 11  1  0
 10 12  2  0
M  END
>  <SMILES>  (165) 
CC(=O)Nc1ncc(C(=O)O)s1

>  <CollectionName>  (165) 
emolecules

>  <LOG PLASMA PROTEIN BINDING (RAT) (% unbound)>  (165) 
1.8541237821

>  <Internal ID>  (165) 
Mol3080

>  <Source>  (165) 
Biogen

$$$$
317459301
     RDKit          2D

 32 37  0  0  0  0  0  0  0  0999 V2000
    3.3890    2.7699    0.0000 C   0  0  0  0  0  0  0  0  0  0  0  0
    2.9962    2.0422    0.0000 C   0  0  0  0  0  0  0  0  0  0  0  0
    2.1695    2.0185    0.0000 C   0  0  0  0  0  0  0  0  0  0  0  0
    1.7767    1.2907    0.0000 C   0  0  0  0  0  0  0  0  0  0  0  0
    2.2106    0.5867    0.0000 C   0  0  0  0  0  0  0  0  0  0  0  0
    3.0372    0.6104    0.0000 C   0  0  0  0  0  0  0  0  0  0  0  0
    3.4300    1.3381    0.0000 N   0  0  0  0  0  0  0  0  0  0  0  0
    3.4711   -0.0937    0.0000 C   0  0  0  0  0  0  0  0  0  0  0  0
    4.2957   -0.1565    0.0000 N   0  0  0  0  0  0  0  0  0  0  0  0
    4.4908   -0.9602    0.0000 C   0  0  0  0  0  0  0  0  0  0  0  0
    3.7867   -1.3940    0.0000 N   0  0  0  0  0  0  0  0  0  0  0  0
    3.1565   -0.8585    0.0000 C   0  0  0  0  0  0  0  0  0  0  0  0
    2.3529   -1.0536    0.0000 C   0  0  0  0  0  0  0  0  0  0  0  0
    1.7821   -0.4551    0.0000 C   0  0  0  0  0  0  0  0  0  0  0  0
    0.9784   -0.6502    0.0000 C   0  0  0  0  0  0  0  0  0  0  0  0
    0.7455   -1.4437    0.0000 C   0  0  0  0  0  0  0  0  0  0  0  0
    0.0000   -1.8016    0.0000 O   0  0  0  0  0  0  0  0  0  0  0  0
    0.1100   -2.6213    0.0000 C   0  0  0  0  0  0  0  0  0  0  0  0
    0.9235   -2.7699    0.0000 O   0  0  0  0  0  0  0  0  0  0  0  0
    1.3163   -2.0422    0.0000 C   0  0  0  0  0  0  0  0  0  0  0  0
    2.1200   -1.8471    0.0000 C   0  0  0  0  0  0  0  0  0  0  0  0
    5.2556   -1.2747    0.0000 C   0  0  0  0  0  0  0  0  0  0  0  0
    4.5340   -1.6911    0.0000 C   0  0  0  0  0  0  0  0  0  0  0  0
    4.3243   -1.3303    0.0000 C   0  0  0  0  0  0  0  0  0  0  0  0
    5.3636   -0.8707    0.0000 C   0  0  0  0  0  0  0  0  0  0  0  0
    6.1284   -1.1884    0.0000 C   0  0  0  0  0  0  0  0  0  0  0  0
    6.0205   -1.5893    0.0000 C   0  0  0  0  0  0  0  0  0  0  0  0
    5.2094   -0.3094    0.0000 C   0  0  0  0  0  0  0  0  0  0  0  0
    4.8485   -0.5192    0.0000 C   0  0  0  0  0  0  0  0  0  0  0  0
    6.1199   -0.5363    0.0000 C   0  0  0  0  0  0  0  0  0  0  0  0
    6.7877   -1.0241    0.0000 N   0  0  0  0  0  0  0  0  0  0  0  0
    6.2085    0.2859    0.0000 O   0  0  0  0  0  0  0  0  0  0  0  0
  1  2  1  0
  2  7  2  0
  2  3  1  0
  3  4  2  0
  4  5  1  0
  5  6  2  0
  6  7  1  0
  6  8  1  0
  8 12  2  0
  8  9  1  0
  9 10  2  0
 10 11  1  0
 11 12  1  0
 12 13  1  0
 13 21  1  0
 13 14  2  0
 14 15  1  0
 15 16  2  0
 16 20  1  0
 16 17  1  0
 17 18  1  0
 18 19  1  0
 19 20  1  0
 20 21  2  0
 10 22  1  0
 22 27  1  0
 22 29  1  0
 22 23  1  0
 23 24  1  0
 24 25  1  0
 25 26  1  0
 26 27  1  0
 25 28  1  0
 28 29  1  0
 25 30  1  0
 30 31  1  0
 30 32  2  0
M  END
>  <SMILES>  (166) 
Cc1cccc(-c2nc(C34CCC(C(N)=O)(CC3)CC4)[nH]c2-c2ccc3c(c2)OCO3)n1

>  <CollectionName>  (166) 
emolecules

>  <LOG PLASMA PROTEIN BINDING (RAT) (% unbound)>  (166) 
0.210318519826

>  <Internal ID>  (166) 
Mol3081

>  <Source>  (166) 
Biogen

$$$$
44811278
     RDKit          2D

 33 35  0  0  1  0  0  0  0  0999 V2000
    0.0000    0.0000    0.0000 Cl  0  0  0  0  0  0  0  0  0  0  0  0
    1.9578    2.8516    0.0000 C   0  0  0  0  0  0  0  0  0  0  0  0
    1.9571    2.0246    0.0000 O   0  0  0  0  0  0  0  0  0  0  0  0
    2.6729    1.6105    0.0000 C   0  0  0  0  0  0  0  0  0  0  0  0
    3.3887    2.0246    0.0000 C   0  0  0  0  0  0  0  0  0  0  0  0
    4.1046    1.6105    0.0000 C   0  0  0  0  0  0  0  0  0  0  0  0
    4.8264    2.0246    0.0000 N   0  0  0  0  0  0  0  0  0  0  0  0
    5.5422    1.6105    0.0000 C   0  0  0  0  0  0  0  0  0  0  0  0
    5.5422    0.7822    0.0000 N   0  0  0  0  0  0  0  0  0  0  0  0
    4.8264    0.3681    0.0000 C   0  0  0  0  0  0  0  0  0  0  0  0
    4.8323   -0.4589    0.0000 N   0  0  0  0  0  0  0  0  0  0  0  0
    5.5514   -0.8672    0.0000 C   0  0  0  0  0  0  0  0  0  0  0  0
    6.3045   -0.5255    0.0000 C   0  0  0  0  0  0  0  0  0  0  0  0
    6.8622   -1.1361    0.0000 N   0  0  0  0  0  0  0  0  0  0  0  0
    6.4539   -1.8552    0.0000 C   0  0  0  0  0  0  0  0  0  0  0  0
    5.6437   -1.6891    0.0000 C   0  0  0  0  0  0  0  0  0  0  0  0
    5.3938   -2.4774    0.0000 C   0  0  0  0  0  0  0  0  0  0  0  0
    4.7631   -2.2775    0.0000 C   0  0  0  0  0  0  0  0  0  0  0  0
    5.1439   -3.2657    0.0000 C   0  0  0  0  0  0  0  0  0  0  0  0
    6.1821   -2.7273    0.0000 O   0  0  0  0  0  0  0  0  0  0  0  0
    4.1046    0.7822    0.0000 C   0  0  0  0  0  0  0  0  0  0  0  0
    3.3887    0.3681    0.0000 C   0  0  0  0  0  0  0  0  0  0  0  0
    2.6729    0.7822    0.0000 C   0  0  0  0  0  0  0  0  0  0  0  0
    1.9571    0.3681    0.0000 O   0  0  0  0  0  0  0  0  0  0  0  0
    1.2405    0.7810    0.0000 C   0  0  0  0  0  0  0  0  0  0  0  0
    6.2580    2.0246    0.0000 C   0  0  0  0  0  0  0  0  0  0  0  0
    6.9746    1.6117    0.0000 C   0  0  0  0  0  0  0  0  0  0  0  0
    7.6904    2.0259    0.0000 C   0  0  0  0  0  0  0  0  0  0  0  0
    8.4070    1.6130    0.0000 F   0  0  0  0  0  0  0  0  0  0  0  0
    7.6897    2.8529    0.0000 C   0  0  0  0  0  0  0  0  0  0  0  0
    6.9732    3.2657    0.0000 C   0  0  0  0  0  0  0  0  0  0  0  0
    6.2573    2.8516    0.0000 C   0  0  0  0  0  0  0  0  0  0  0  0
    5.5408    3.2645    0.0000 O   0  0  0  0  0  0  0  0  0  0  0  0
  2  3  1  0
  3  4  1  0
  4 23  2  0
  4  5  1  0
  5  6  2  0
  6 21  1  0
  6  7  1  0
  7  8  2  0
  8  9  1  0
  9 10  2  0
 10 11  1  0
 12 11  1  6
 12 16  1  0
 12 13  1  0
 13 14  1  0
 14 15  1  0
 15 16  1  0
 16 17  1  1
 17 18  1  0
 17 19  1  0
 17 20  1  0
 10 21  1  0
 21 22  2  0
 22 23  1  0
 23 24  1  0
 24 25  1  0
  8 26  1  0
 26 32  1  0
 26 27  2  0
 27 28  1  0
 28 29  1  0
 28 30  2  0
 30 31  1  0
 31 32  2  0
 32 33  1  0
M  END
>  <SMILES>  (167) 
COc1cc2nc(-c3cc(F)ccc3O)nc(N[C@@H]3CNC[C@H]3C(C)(C)O)c2cc1OC.Cl

>  <CollectionName>  (167) 
emolecules

>  <LOG PLASMA PROTEIN BINDING (RAT) (% unbound)>  (167) 
-0.823908740944

>  <Internal ID>  (167) 
Mol3082

>  <Source>  (167) 
Biogen

$$$$
50406362
     RDKit          2D

 29 32  0  0  1  0  0  0  0  0999 V2000
    0.1704   -3.6310    0.0000 C   0  0  0  0  0  0  0  0  0  0  0  0
    0.9580   -3.3786    0.0000 C   0  0  0  0  0  0  0  0  0  0  0  0
    1.5703   -3.9344    0.0000 C   0  0  0  0  0  0  0  0  0  0  0  0
    1.1331   -2.5703    0.0000 C   0  0  0  0  0  0  0  0  0  0  0  0
    1.7797   -2.7105    0.0000 C   0  0  0  0  0  0  0  0  0  0  0  0
    0.3249   -2.3952    0.0000 O   0  0  0  0  0  0  0  0  0  0  0  0
    1.3083   -1.7621    0.0000 C   0  0  0  0  0  0  0  0  0  0  0  0
    1.8641   -1.1497    0.0000 C   0  0  0  0  0  0  0  0  0  0  0  0
    1.6117   -0.3622    0.0000 N   0  0  0  0  0  0  0  0  0  0  0  0
    0.8035   -0.1870    0.0000 C   0  0  0  0  0  0  0  0  0  0  0  0
    0.2477   -0.7994    0.0000 C   0  0  0  0  0  0  0  0  0  0  0  0
    0.5001   -1.5869    0.0000 N   0  0  0  0  0  0  0  0  0  0  0  0
    2.1675    0.2502    0.0000 C   0  0  0  0  0  0  0  0  0  0  0  0
    1.9151    1.0377    0.0000 N   0  0  0  0  0  0  0  0  0  0  0  0
    2.4709    1.6501    0.0000 C   0  0  0  0  0  0  0  0  0  0  0  0
    2.2185    2.4376    0.0000 C   0  0  0  0  0  0  0  0  0  0  0  0
    2.7096    3.1061    0.0000 N   0  0  0  0  0  0  0  0  0  0  0  0
    2.2185    3.7746    0.0000 N   0  0  0  0  0  0  0  0  0  0  0  0
    1.4317    3.5203    0.0000 C   0  0  0  0  0  0  0  0  0  0  0  0
    0.7158    3.9344    0.0000 N   0  0  0  0  0  0  0  0  0  0  0  0
    0.0000    3.5203    0.0000 C   0  0  0  0  0  0  0  0  0  0  0  0
    0.0000    2.6920    0.0000 C   0  0  0  0  0  0  0  0  0  0  0  0
    0.7158    2.2779    0.0000 C   0  0  0  0  0  0  0  0  0  0  0  0
    1.4317    2.6920    0.0000 C   0  0  0  0  0  0  0  0  0  0  0  0
    3.2792    1.4749    0.0000 C   0  0  0  0  0  0  0  0  0  0  0  0
    3.8350    2.0873    0.0000 F   0  0  0  0  0  0  0  0  0  0  0  0
    3.5316    0.6874    0.0000 C   0  0  0  0  0  0  0  0  0  0  0  0
    2.9758    0.0750    0.0000 C   0  0  0  0  0  0  0  0  0  0  0  0
    3.2282   -0.7125    0.0000 Cl  0  0  0  0  0  0  0  0  0  0  0  0
  1  2  1  0
  2  3  1  0
  4  2  1  0
  4  5  1  6
  4  6  1  0
  4  7  1  0
  7 12  1  0
  7  8  1  1
  8  9  1  0
  9 10  1  0
 10 11  1  0
 11 12  1  0
  9 13  1  0
 13 28  1  0
 13 14  2  0
 14 15  1  0
 15 16  1  0
 16 24  1  0
 16 17  2  0
 17 18  1  0
 18 19  1  0
 19 24  2  0
 19 20  1  0
 20 21  2  0
 21 22  1  0
 22 23  2  0
 23 24  1  0
 15 25  2  0
 25 26  1  0
 25 27  1  0
 27 28  2  0
 28 29  1  0
M  END
>  <SMILES>  (168) 
CC(C)[C@@](C)(O)[C@@H]1CN(c2nc(-c3n[nH]c4ncccc34)c(F)cc2Cl)CCN1

>  <CollectionName>  (168) 
emolecules

>  <LOG PLASMA PROTEIN BINDING (RAT) (% unbound)>  (168) 
0.622421273976

>  <Internal ID>  (168) 
Mol3083

>  <Source>  (168) 
Biogen

$$$$
CHEMBL113
     RDKit          2D

 14 15  0  0  0  0  0  0  0  0999 V2000
   -1.7355   -0.0104    0.0000 C   0  0  0  0  0  0  0  0  0  0  0  0
   -0.8680   -0.5079    0.0000 N   0  0  0  0  0  0  0  0  0  0  0  0
   -0.8680   -1.5137    0.0000 C   0  0  0  0  0  0  0  0  0  0  0  0
   -1.7333   -2.0149    0.0000 O   0  0  0  0  0  0  0  0  0  0  0  0
    0.0000   -2.0116    0.0000 N   0  0  0  0  0  0  0  0  0  0  0  0
   -0.0006   -3.0116    0.0000 C   0  0  0  0  0  0  0  0  0  0  0  0
    0.8680   -1.5150    0.0000 C   0  0  0  0  0  0  0  0  0  0  0  0
    1.8258   -1.8263    0.0000 N   0  0  0  0  0  0  0  0  0  0  0  0
    2.4178   -1.0115    0.0000 C   0  0  0  0  0  0  0  0  0  0  0  0
    1.8258   -0.1969    0.0000 N   0  0  0  0  0  0  0  0  0  0  0  0
    2.1349    0.7541    0.0000 C   0  0  0  0  0  0  0  0  0  0  0  0
    0.8680   -0.5079    0.0000 C   0  0  0  0  0  0  0  0  0  0  0  0
    0.0000    0.0000    0.0000 C   0  0  0  0  0  0  0  0  0  0  0  0
    0.0000    1.0000    0.0000 O   0  0  0  0  0  0  0  0  0  0  0  0
  1  2  1  0
  2 13  1  0
  2  3  1  0
  3  4  2  0
  3  5  1  0
  5  6  1  0
  5  7  1  0
  7 12  2  0
  7  8  1  0
  8  9  2  0
  9 10  1  0
 10 11  1  0
 10 12  1  0
 12 13  1  0
 13 14  2  0
M  END
>  <SMILES>  (169) 
Cn1c(=O)c2c(ncn2C)n(C)c1=O

>  <CollectionName>  (169) 
chembl

>  <LOG PLASMA PROTEIN BINDING (RAT) (% unbound)>  (169) 
1.93611143167

>  <Internal ID>  (169) 


>  <Source>  (169) 
AstraZeneca

$$$$
CHEMBL567
     RDKit          2D

 27 30  0  0  0  0  0  0  0  0999 V2000
   -2.6200    6.4980    0.0000 O   0  0  0  0  0  0  0  0  0  0  0  0
   -1.7526    6.0003    0.0000 C   0  0  0  0  0  0  0  0  0  0  0  0
   -1.7500    5.0003    0.0000 C   0  0  0  0  0  0  0  0  0  0  0  0
   -0.8826    4.5026    0.0000 N   0  0  0  0  0  0  0  0  0  0  0  0
   -0.8740    3.4975    0.0000 C   0  0  0  0  0  0  0  0  0  0  0  0
   -0.0021    2.9972    0.0000 C   0  0  0  0  0  0  0  0  0  0  0  0
    0.8611    3.5021    0.0000 N   0  0  0  0  0  0  0  0  0  0  0  0
    1.7285    3.0044    0.0000 C   0  0  0  0  0  0  0  0  0  0  0  0
    1.7312    2.0044    0.0000 C   0  0  0  0  0  0  0  0  0  0  0  0
    2.5985    1.5067    0.0000 C   0  0  0  0  0  0  0  0  0  0  0  0
    2.6012    0.5067    0.0000 N   0  0  0  0  0  0  0  0  0  0  0  0
    1.7358   -0.0000    0.0000 C   0  0  0  0  0  0  0  0  0  0  0  0
    0.8679    0.5079    0.0000 C   0  0  0  0  0  0  0  0  0  0  0  0
    0.0000    0.0000    0.0000 C   0  0  0  0  0  0  0  0  0  0  0  0
    0.0000   -1.0057    0.0000 C   0  0  0  0  0  0  0  0  0  0  0  0
    0.8679   -1.5033    0.0000 C   0  0  0  0  0  0  0  0  0  0  0  0
    1.7371   -1.0057    0.0000 C   0  0  0  0  0  0  0  0  0  0  0  0
    2.6038   -1.5046    0.0000 S   0  0  0  0  0  0  0  0  0  0  0  0
    3.4738   -1.0059    0.0000 C   0  0  0  0  0  0  0  0  0  0  0  0
    4.3422   -1.5068    0.0000 C   0  0  0  0  0  0  0  0  0  0  0  0
    5.2158   -1.0053    0.0000 C   0  0  0  0  0  0  0  0  0  0  0  0
    5.2154    0.0028    0.0000 C   0  0  0  0  0  0  0  0  0  0  0  0
    6.0818    0.5022    0.0000 Cl  0  0  0  0  0  0  0  0  0  0  0  0
    4.3415    0.5094    0.0000 C   0  0  0  0  0  0  0  0  0  0  0  0
    3.4735    0.0022    0.0000 C   0  0  0  0  0  0  0  0  0  0  0  0
    0.8614    4.5021    0.0000 C   0  0  0  0  0  0  0  0  0  0  0  0
   -0.0105    5.0024    0.0000 C   0  0  0  0  0  0  0  0  0  0  0  0
  1  2  1  0
  2  3  1  0
  3  4  1  0
  4 27  1  0
  4  5  1  0
  5  6  1  0
  6  7  1  0
  7  8  1  0
  8  9  1  0
  9 10  1  0
 10 11  1  0
 11 25  1  0
 11 12  1  0
 12 17  1  0
 12 13  2  0
 13 14  1  0
 14 15  2  0
 15 16  1  0
 16 17  2  0
 17 18  1  0
 18 19  1  0
 19 25  2  0
 19 20  1  0
 20 21  2  0
 21 22  1  0
 22 23  1  0
 22 24  2  0
 24 25  1  0
  7 26  1  0
 26 27  1  0
M  END
>  <SMILES>  (170) 
OCCN1CCN(CCCN2c3ccccc3Sc3ccc(Cl)cc32)CC1

>  <CollectionName>  (170) 
chembl

>  <LOG PLASMA PROTEIN BINDING (RAT) (% unbound)>  (170) 
0.164352855784

>  <Internal ID>  (170) 


>  <Source>  (170) 
AstraZeneca

$$$$
CHEMBL1263
     RDKit          2D

 30 31  0  0  1  0  0  0  0  0999 V2000
    8.7193   14.9897    0.0000 O   0  0  0  0  0  0  0  0  0  0  0  0
    9.5808   14.4821    0.0000 C   0  0  0  0  0  0  0  0  0  0  0  0
    9.5720   13.4821    0.0000 C   0  0  0  0  0  0  0  0  0  0  0  0
    8.6956   12.9899    0.0000 C   0  0  0  0  0  0  0  0  0  0  0  0
    8.6956   11.9847    0.0000 C   0  0  0  0  0  0  0  0  0  0  0  0
    9.5632   11.4770    0.0000 C   0  0  0  0  0  0  0  0  0  0  0  0
   10.4307   11.9744    0.0000 C   0  0  0  0  0  0  0  0  0  0  0  0
   10.4395   12.9744    0.0000 C   0  0  0  0  0  0  0  0  0  0  0  0
   11.3092   13.4680    0.0000 O   0  0  0  0  0  0  0  0  0  0  0  0
    7.8281   11.4873    0.0000 C   0  0  0  0  0  0  0  0  0  0  0  0
    6.9636   11.9898    0.0000 O   0  0  0  0  0  0  0  0  0  0  0  0
    7.8252   10.4873    0.0000 C   0  0  0  0  0  0  0  0  0  0  0  0
    6.9577    9.9898    0.0000 N   0  0  0  0  0  0  0  0  0  0  0  0
    6.9547    8.9898    0.0000 C   0  0  0  0  0  0  0  0  0  0  0  0
    6.0872    8.4924    0.0000 C   0  0  0  0  0  0  0  0  0  0  0  0
    6.0843    7.4924    0.0000 C   0  0  0  0  0  0  0  0  0  0  0  0
    5.2168    6.9950    0.0000 C   0  0  0  0  0  0  0  0  0  0  0  0
    5.2138    5.9950    0.0000 C   0  0  0  0  0  0  0  0  0  0  0  0
    4.3463    5.4975    0.0000 C   0  0  0  0  0  0  0  0  0  0  0  0
    4.3434    4.4975    0.0000 O   0  0  0  0  0  0  0  0  0  0  0  0
    3.4759    4.0001    0.0000 C   0  0  0  0  0  0  0  0  0  0  0  0
    3.4729    3.0001    0.0000 C   0  0  0  0  0  0  0  0  0  0  0  0
    2.6054    2.5026    0.0000 C   0  0  0  0  0  0  0  0  0  0  0  0
    2.6025    1.5026    0.0000 C   0  0  0  0  0  0  0  0  0  0  0  0
    1.7350    1.0052    0.0000 C   0  0  0  0  0  0  0  0  0  0  0  0
    1.7350   -0.0000    0.0000 C   0  0  0  0  0  0  0  0  0  0  0  0
    0.8675   -0.4975    0.0000 C   0  0  0  0  0  0  0  0  0  0  0  0
    0.0000    0.0000    0.0000 C   0  0  0  0  0  0  0  0  0  0  0  0
    0.0000    1.0052    0.0000 C   0  0  0  0  0  0  0  0  0  0  0  0
    0.8675    1.5129    0.0000 C   0  0  0  0  0  0  0  0  0  0  0  0
  1  2  1  0
  2  3  1  0
  3  8  2  0
  3  4  1  0
  4  5  2  0
  5  6  1  0
  6  7  2  0
  7  8  1  0
  8  9  1  0
  5 10  1  0
 10 11  1  0
 10 12  1  0
 12 13  1  0
 13 14  1  0
 14 15  1  0
 15 16  1  0
 16 17  1  0
 17 18  1  0
 18 19  1  0
 19 20  1  0
 20 21  1  0
 21 22  1  0
 22 23  1  0
 23 24  1  0
 24 25  1  0
 25 30  1  0
 25 26  2  0
 26 27  1  0
 27 28  2  0
 28 29  1  0
 29 30  2  0
M  END
>  <SMILES>  (171) 
OCc1cc(C(O)CNCCCCCCOCCCCc2ccccc2)ccc1O

>  <CollectionName>  (171) 
chembl

>  <LOG PLASMA PROTEIN BINDING (RAT) (% unbound)>  (171) 
0.866877814337

>  <Internal ID>  (171) 


>  <Source>  (171) 
AstraZeneca

$$$$
CHEMBL1294
     RDKit          2D

 24 27  0  0  1  0  0  0  0  0999 V2000
   -1.7320   -0.0025    0.0000 C   0  0  0  0  0  0  0  0  0  0  0  0
   -0.8653   -0.5013    0.0000 O   0  0  0  0  0  0  0  0  0  0  0  0
    0.0000    0.0000    0.0000 C   0  0  0  0  0  0  0  0  0  0  0  0
    0.0000    1.0089    0.0000 C   0  0  0  0  0  0  0  0  0  0  0  0
    0.8707    1.5185    0.0000 C   0  0  0  0  0  0  0  0  0  0  0  0
    1.7414    1.0089    0.0000 C   0  0  0  0  0  0  0  0  0  0  0  0
    2.6125    1.5125    0.0000 N   0  0  0  0  0  0  0  0  0  0  0  0
    3.4848    1.0014    0.0000 C   0  0  0  0  0  0  0  0  0  0  0  0
    3.4805   -0.0073    0.0000 C   0  0  0  0  0  0  0  0  0  0  0  0
    2.6039   -0.5053    0.0000 C   0  0  0  0  0  0  0  0  0  0  0  0
    2.5983   -1.5053    0.0000 C   0  0  0  0  0  0  0  0  0  0  0  0
    1.7295   -2.0004    0.0000 O   0  0  0  0  0  0  0  0  0  0  0  0
    3.4615   -2.0101    0.0000 C   0  0  0  0  0  0  0  0  0  0  0  0
    3.4496   -3.4132    0.0000 C   0  0  0  0  0  0  0  0  0  0  0  0
    4.6546   -4.1180    0.0000 C   0  0  0  0  0  0  0  0  0  0  0  0
    5.4123   -3.4653    0.0000 C   0  0  0  0  0  0  0  0  0  0  0  0
    5.4525   -2.0624    0.0000 C   0  0  0  0  0  0  0  0  0  0  0  0
    4.6786   -1.3117    0.0000 N   0  0  0  0  0  0  0  0  0  0  0  0
    5.8835   -2.0308    0.0000 C   0  0  0  0  0  0  0  0  0  0  0  0
    5.8715   -3.4339    0.0000 C   0  0  0  0  0  0  0  0  0  0  0  0
    6.7325   -3.9425    0.0000 C   0  0  0  0  0  0  0  0  0  0  0  0
    6.7225   -4.9424    0.0000 C   0  0  0  0  0  0  0  0  0  0  0  0
    1.7371    0.0000    0.0000 C   0  0  0  0  0  0  0  0  0  0  0  0
    0.8707   -0.4993    0.0000 C   0  0  0  0  0  0  0  0  0  0  0  0
  1  2  1  0
  2  3  1  0
  3 24  2  0
  3  4  1  0
  4  5  2  0
  5  6  1  0
  6 23  2  0
  6  7  1  0
  7  8  2  0
  8  9  1  0
  9 10  2  0
 10 11  1  0
 11 12  1  1
 11 13  1  0
 13 18  1  0
 13 14  1  6
 15 14  1  6
 15 20  1  0
 15 16  1  0
 16 17  1  0
 17 18  1  0
 18 19  1  0
 19 20  1  0
 20 21  1  6
 21 22  2  0
 10 23  1  0
 23 24  1  0
M  END
>  <SMILES>  (172) 
C=C[C@H]1CN2CC[C@H]1C[C@@H]2[C@@H](O)c1ccnc2ccc(OC)cc12

>  <CollectionName>  (172) 
chembl

>  <LOG PLASMA PROTEIN BINDING (RAT) (% unbound)>  (172) 
1.59361830813

>  <Internal ID>  (172) 


>  <Source>  (172) 
AstraZeneca

$$$$
CHEMBL457608
     RDKit          2D

 26 29  0  0  1  0  0  0  0  0999 V2000
    2.5995    1.4976    0.0000 C   0  0  0  0  0  0  0  0  0  0  0  0
    1.7350    2.0001    0.0000 C   0  0  0  0  0  0  0  0  0  0  0  0
    1.7379    3.0001    0.0000 N   0  0  0  0  0  0  0  0  0  0  0  0
    2.6054    3.4976    0.0000 C   0  0  0  0  0  0  0  0  0  0  0  0
    3.4729    2.9899    0.0000 N   0  0  0  0  0  0  0  0  0  0  0  0
    4.3404    3.4976    0.0000 C   0  0  0  0  0  0  0  0  0  0  0  0
    4.3404    4.5028    0.0000 C   0  0  0  0  0  0  0  0  0  0  0  0
    5.2057    5.0040    0.0000 Cl  0  0  0  0  0  0  0  0  0  0  0  0
    3.4729    5.0003    0.0000 C   0  0  0  0  0  0  0  0  0  0  0  0
    3.4729    6.0003    0.0000 N   0  0  0  0  0  0  0  0  0  0  0  0
    4.3390    6.5003    0.0000 C   0  0  0  0  0  0  0  0  0  0  0  0
    5.2513    6.0907    0.0000 C   0  0  0  0  0  0  0  0  0  0  0  0
    5.9217    6.8347    0.0000 C   0  0  0  0  0  0  0  0  0  0  0  0
    5.4234    7.7036    0.0000 N   0  0  0  0  0  0  0  0  0  0  0  0
    4.4405    7.4956    0.0000 N   0  0  0  0  0  0  0  0  0  0  0  0
    6.9161    6.7285    0.0000 C   0  0  0  0  0  0  0  0  0  0  0  0
    7.7263    6.1392    0.0000 C   0  0  0  0  0  0  0  0  0  0  0  0
    7.8325    7.1335    0.0000 C   0  0  0  0  0  0  0  0  0  0  0  0
    2.6054    4.5028    0.0000 N   0  0  0  0  0  0  0  0  0  0  0  0
    0.8675    1.5027    0.0000 C   0  0  0  0  0  0  0  0  0  0  0  0
    0.8675    0.4975    0.0000 C   0  0  0  0  0  0  0  0  0  0  0  0
    0.0000    0.0000    0.0000 C   0  0  0  0  0  0  0  0  0  0  0  0
   -0.8675    0.4975    0.0000 C   0  0  0  0  0  0  0  0  0  0  0  0
   -1.7328   -0.0038    0.0000 F   0  0  0  0  0  0  0  0  0  0  0  0
   -0.8675    1.5027    0.0000 C   0  0  0  0  0  0  0  0  0  0  0  0
    0.0000    2.0104    0.0000 N   0  0  0  0  0  0  0  0  0  0  0  0
  2  1  1  1
  2  3  1  0
  3  4  1  0
  4 19  1  0
  4  5  2  0
  5  6  1  0
  6  7  2  0
  7  8  1  0
  7  9  1  0
  9 10  1  0
 10 11  1  0
 11 15  2  0
 11 12  1  0
 12 13  2  0
 13 14  1  0
 14 15  1  0
 13 16  1  0
 16 18  1  0
 16 17  1  0
 17 18  1  0
  9 19  2  0
  2 20  1  0
 20 26  1  0
 20 21  2  0
 21 22  1  0
 22 23  2  0
 23 24  1  0
 23 25  1  0
 25 26  2  0
M  END
>  <SMILES>  (173) 
C[C@H](Nc1ncc(Cl)c(Nc2cc(C3CC3)[nH]n2)n1)c1ccc(F)cn1

>  <CollectionName>  (173) 
chembl

>  <LOG PLASMA PROTEIN BINDING (RAT) (% unbound)>  (173) 
-0.0457574905607

>  <Internal ID>  (173) 


>  <Source>  (173) 
AstraZeneca

$$$$
CHEMBL1650726
     RDKit          2D

 24 26  0  0  1  0  0  0  0  0999 V2000
    3.4670    1.0001    0.0000 C   0  0  0  0  0  0  0  0  0  0  0  0
    2.6025    1.5026    0.0000 C   0  0  0  0  0  0  0  0  0  0  0  0
    2.6054    2.5026    0.0000 O   0  0  0  0  0  0  0  0  0  0  0  0
    3.4729    3.0001    0.0000 C   0  0  0  0  0  0  0  0  0  0  0  0
    4.3404    2.4924    0.0000 N   0  0  0  0  0  0  0  0  0  0  0  0
    5.2079    3.0001    0.0000 C   0  0  0  0  0  0  0  0  0  0  0  0
    5.2079    4.0053    0.0000 C   0  0  0  0  0  0  0  0  0  0  0  0
    6.0732    4.5065    0.0000 Cl  0  0  0  0  0  0  0  0  0  0  0  0
    4.3404    4.5028    0.0000 C   0  0  0  0  0  0  0  0  0  0  0  0
    4.3404    5.5028    0.0000 N   0  0  0  0  0  0  0  0  0  0  0  0
    5.2065    6.0028    0.0000 C   0  0  0  0  0  0  0  0  0  0  0  0
    6.1188    5.5932    0.0000 C   0  0  0  0  0  0  0  0  0  0  0  0
    6.7892    6.3372    0.0000 C   0  0  0  0  0  0  0  0  0  0  0  0
    7.7836    6.2310    0.0000 C   0  0  0  0  0  0  0  0  0  0  0  0
    6.2909    7.2061    0.0000 N   0  0  0  0  0  0  0  0  0  0  0  0
    5.3080    6.9981    0.0000 N   0  0  0  0  0  0  0  0  0  0  0  0
    3.4729    4.0053    0.0000 N   0  0  0  0  0  0  0  0  0  0  0  0
    1.7350    1.0052    0.0000 C   0  0  0  0  0  0  0  0  0  0  0  0
    0.8675    1.5129    0.0000 N   0  0  0  0  0  0  0  0  0  0  0  0
    0.0000    1.0052    0.0000 C   0  0  0  0  0  0  0  0  0  0  0  0
    0.0000    0.0000    0.0000 C   0  0  0  0  0  0  0  0  0  0  0  0
   -0.8653   -0.5013    0.0000 F   0  0  0  0  0  0  0  0  0  0  0  0
    0.8675   -0.4975    0.0000 C   0  0  0  0  0  0  0  0  0  0  0  0
    1.7350    0.0000    0.0000 N   0  0  0  0  0  0  0  0  0  0  0  0
  2  1  1  1
  2  3  1  0
  3  4  1  0
  4 17  1  0
  4  5  2  0
  5  6  1  0
  6  7  2  0
  7  8  1  0
  7  9  1  0
  9 10  1  0
 10 11  1  0
 11 16  2  0
 11 12  1  0
 12 13  2  0
 13 14  1  0
 13 15  1  0
 15 16  1  0
  9 17  2  0
  2 18  1  0
 18 24  1  0
 18 19  2  0
 19 20  1  0
 20 21  2  0
 21 22  1  0
 21 23  1  0
 23 24  2  0
M  END
>  <SMILES>  (174) 
Cc1cc(Nc2nc(O[C@@H](C)c3ncc(F)cn3)ncc2Cl)n[nH]1

>  <CollectionName>  (174) 
chembl

>  <LOG PLASMA PROTEIN BINDING (RAT) (% unbound)>  (174) 
1.5301996982

>  <Internal ID>  (174) 


>  <Source>  (174) 
AstraZeneca

$$$$
CHEMBL1683031
     RDKit          2D

 32 35  0  0  0  0  0  0  0  0999 V2000
   -2.5995    1.4980    0.0000 C   0  0  0  0  0  0  0  0  0  0  0  0
   -1.7320    1.0005    0.0000 C   0  0  0  0  0  0  0  0  0  0  0  0
   -0.8675    1.5031    0.0000 O   0  0  0  0  0  0  0  0  0  0  0  0
   -0.0000    1.0056    0.0000 C   0  0  0  0  0  0  0  0  0  0  0  0
    0.8679    1.5135    0.0000 C   0  0  0  0  0  0  0  0  0  0  0  0
    1.7358    1.0056    0.0000 C   0  0  0  0  0  0  0  0  0  0  0  0
    2.6012    1.5123    0.0000 N   0  0  0  0  0  0  0  0  0  0  0  0
    3.4735    1.0079    0.0000 N   0  0  0  0  0  0  0  0  0  0  0  0
    3.4748    0.0023    0.0000 C   0  0  0  0  0  0  0  0  0  0  0  0
    4.3408   -0.4978    0.0000 C   0  0  0  0  0  0  0  0  0  0  0  0
    4.3407   -1.4978    0.0000 O   0  0  0  0  0  0  0  0  0  0  0  0
    5.2069    0.0022    0.0000 N   0  0  0  0  0  0  0  0  0  0  0  0
    2.6038   -0.4989    0.0000 C   0  0  0  0  0  0  0  0  0  0  0  0
    2.6037   -1.4989    0.0000 N   0  0  0  0  0  0  0  0  0  0  0  0
    1.7377   -1.9988    0.0000 C   0  0  0  0  0  0  0  0  0  0  0  0
    0.8709   -1.5000    0.0000 C   0  0  0  0  0  0  0  0  0  0  0  0
    0.0027   -1.9962    0.0000 C   0  0  0  0  0  0  0  0  0  0  0  0
    0.0011   -3.0014    0.0000 C   0  0  0  0  0  0  0  0  0  0  0  0
   -0.8671   -3.4975    0.0000 C   0  0  0  0  0  0  0  0  0  0  0  0
    0.8679   -3.5104    0.0000 C   0  0  0  0  0  0  0  0  0  0  0  0
    1.7361   -3.0040    0.0000 C   0  0  0  0  0  0  0  0  0  0  0  0
    2.6029   -3.5028    0.0000 F   0  0  0  0  0  0  0  0  0  0  0  0
    1.7371    0.0000    0.0000 C   0  0  0  0  0  0  0  0  0  0  0  0
    0.8679   -0.4977    0.0000 C   0  0  0  0  0  0  0  0  0  0  0  0
    0.0000    0.0000    0.0000 C   0  0  0  0  0  0  0  0  0  0  0  0
   -0.8653   -0.5013    0.0000 N   0  0  0  0  0  0  0  0  0  0  0  0
   -1.7395   -0.0051    0.0000 C   0  0  0  0  0  0  0  0  0  0  0  0
   -2.6092   -0.5090    0.0000 C   0  0  0  0  0  0  0  0  0  0  0  0
   -2.6049   -1.5090    0.0000 N   0  0  0  0  0  0  0  0  0  0  0  0
   -3.4702   -2.0103    0.0000 C   0  0  0  0  0  0  0  0  0  0  0  0
   -1.7395   -2.0103    0.0000 C   0  0  0  0  0  0  0  0  0  0  0  0
   -0.8698   -1.5064    0.0000 C   0  0  0  0  0  0  0  0  0  0  0  0
  1  2  1  0
  2  3  1  0
  3  4  1  0
  4 25  2  0
  4  5  1  0
  5  6  2  0
  6 23  1  0
  6  7  1  0
  7  8  2  0
  8  9  1  0
  9 10  1  0
 10 11  2  0
 10 12  1  0
  9 13  2  0
 13 14  1  0
 14 15  1  0
 15 21  1  0
 15 16  2  0
 16 17  1  0
 17 18  2  0
 18 19  1  0
 18 20  1  0
 20 21  2  0
 21 22  1  0
 13 23  1  0
 23 24  2  0
 24 25  1  0
 25 26  1  0
 26 32  1  0
 26 27  1  0
 27 28  1  0
 28 29  1  0
 29 30  1  0
 29 31  1  0
 31 32  1  0
M  END
>  <SMILES>  (175) 
CCOc1cc2nnc(C(N)=O)c(Nc3ccc(C)cc3F)c2cc1N1CCN(C)CC1

>  <CollectionName>  (175) 
chembl

>  <LOG PLASMA PROTEIN BINDING (RAT) (% unbound)>  (175) 
0.801403710017

>  <Internal ID>  (175) 


>  <Source>  (175) 
AstraZeneca

$$$$
CHEMBL1689128
     RDKit          2D

 30 32  0  0  1  0  0  0  0  0999 V2000
    2.6025    1.5026    0.0000 C   0  0  0  0  0  0  0  0  0  0  0  0
    1.7350    1.0052    0.0000 C   0  0  0  0  0  0  0  0  0  0  0  0
    1.7350    0.0000    0.0000 C   0  0  0  0  0  0  0  0  0  0  0  0
    0.8675   -0.4975    0.0000 N   0  0  0  0  0  0  0  0  0  0  0  0
    0.8675   -1.4975    0.0000 C   0  0  0  0  0  0  0  0  0  0  0  0
    0.0015   -1.9975    0.0000 C   0  0  0  0  0  0  0  0  0  0  0  0
   -0.8675   -1.4924    0.0000 C   0  0  0  0  0  0  0  0  0  0  0  0
   -1.7335   -2.0026    0.0000 C   0  0  0  0  0  0  0  0  0  0  0  0
   -2.6025   -1.5077    0.0000 Cl  0  0  0  0  0  0  0  0  0  0  0  0
   -1.7306   -3.0078    0.0000 C   0  0  0  0  0  0  0  0  0  0  0  0
   -0.8616   -3.5028    0.0000 C   0  0  0  0  0  0  0  0  0  0  0  0
    0.0044   -3.0027    0.0000 C   0  0  0  0  0  0  0  0  0  0  0  0
    0.8712   -3.5014    0.0000 O   0  0  0  0  0  0  0  0  0  0  0  0
    1.7365   -3.0001    0.0000 C   0  0  0  0  0  0  0  0  0  0  0  0
    2.6033   -3.4988    0.0000 C   0  0  0  0  0  0  0  0  0  0  0  0
    2.6048   -4.4988    0.0000 O   0  0  0  0  0  0  0  0  0  0  0  0
    3.4685   -2.9975    0.0000 O   0  0  0  0  0  0  0  0  0  0  0  0
    0.0000    0.0000    0.0000 C   0  0  0  0  0  0  0  0  0  0  0  0
    0.0000    1.0052    0.0000 C   0  0  0  0  0  0  0  0  0  0  0  0
    0.8675    1.5129    0.0000 N   0  0  0  0  0  0  0  0  0  0  0  0
    0.8675    2.5129    0.0000 C   0  0  0  0  0  0  0  0  0  0  0  0
    1.7335    3.0129    0.0000 O   0  0  0  0  0  0  0  0  0  0  0  0
    0.0015    3.0129    0.0000 C   0  0  0  0  0  0  0  0  0  0  0  0
    0.0015    4.0129    0.0000 C   0  0  0  0  0  0  0  0  0  0  0  0
    0.8668    4.5142    0.0000 C   0  0  0  0  0  0  0  0  0  0  0  0
    0.8712    5.5142    0.0000 C   0  0  0  0  0  0  0  0  0  0  0  0
    0.0014    6.0181    0.0000 C   0  0  0  0  0  0  0  0  0  0  0  0
    0.0058    7.0180    0.0000 Cl  0  0  0  0  0  0  0  0  0  0  0  0
   -0.8728    5.5219    0.0000 C   0  0  0  0  0  0  0  0  0  0  0  0
   -0.8683    4.5168    0.0000 C   0  0  0  0  0  0  0  0  0  0  0  0
  2  1  1  1
  2 20  1  0
  2  3  1  0
  3  4  1  0
  4  5  1  0
  5  6  1  0
  6 12  1  0
  6  7  2  0
  7  8  1  0
  8  9  1  0
  8 10  2  0
 10 11  1  0
 11 12  2  0
 12 13  1  0
 13 14  1  0
 14 15  1  0
 15 16  2  0
 15 17  1  0
  4 18  1  0
 18 19  1  0
 19 20  1  0
 20 21  1  0
 21 22  2  0
 21 23  1  0
 23 24  1  0
 24 30  1  0
 24 25  2  0
 25 26  1  0
 26 27  2  0
 27 28  1  0
 27 29  1  0
 29 30  2  0
M  END
>  <SMILES>  (176) 
C[C@H]1CN(Cc2cc(Cl)ccc2OCC(=O)O)CCN1C(=O)Cc1ccc(Cl)cc1

>  <CollectionName>  (176) 
chembl

>  <LOG PLASMA PROTEIN BINDING (RAT) (% unbound)>  (176) 
0.583198773969

>  <Internal ID>  (176) 


>  <Source>  (176) 
AstraZeneca

$$$$
CHEMBL2204344
     RDKit          2D

 29 31  0  0  0  0  0  0  0  0999 V2000
    0.6565    2.7740    0.0000 O   0  0  0  0  0  0  0  0  0  0  0  0
    0.0101    2.0110    0.0000 Si  0  0  0  0  0  4  0  0  0  0  0  0
   -0.8584    1.5098    0.0000 C   0  0  0  0  0  0  0  0  0  0  0  0
   -0.8635    0.5043    0.0000 C   0  0  0  0  0  0  0  0  0  0  0  0
    0.0000    0.0000    0.0000 N   0  0  0  0  0  0  0  0  0  0  0  0
   -0.0064   -1.0000    0.0000 C   0  0  0  0  0  0  0  0  0  0  0  0
    0.8564   -1.5055    0.0000 C   0  0  0  0  0  0  0  0  0  0  0  0
    0.8501   -2.5055    0.0000 C   0  0  0  0  0  0  0  0  0  0  0  0
    1.7129   -3.0110    0.0000 C   0  0  0  0  0  0  0  0  0  0  0  0
    2.5821   -2.5165    0.0000 O   0  0  0  0  0  0  0  0  0  0  0  0
    1.7065   -4.0110    0.0000 C   0  0  0  0  0  0  0  0  0  0  0  0
    0.8380   -4.5067    0.0000 C   0  0  0  0  0  0  0  0  0  0  0  0
    0.8273   -5.5067    0.0000 C   0  0  0  0  0  0  0  0  0  0  0  0
    1.6939   -6.0161    0.0000 C   0  0  0  0  0  0  0  0  0  0  0  0
    1.6831   -7.0160    0.0000 F   0  0  0  0  0  0  0  0  0  0  0  0
    2.5712   -5.5255    0.0000 C   0  0  0  0  0  0  0  0  0  0  0  0
    2.5731   -4.5204    0.0000 C   0  0  0  0  0  0  0  0  0  0  0  0
    0.8740    0.4956    0.0000 C   0  0  0  0  0  0  0  0  0  0  0  0
    0.8791    1.5011    0.0000 C   0  0  0  0  0  0  0  0  0  0  0  0
   -0.6308    2.7786    0.0000 C   0  0  0  0  0  0  0  0  0  0  0  0
   -1.6206    2.6036    0.0000 C   0  0  0  0  0  0  0  0  0  0  0  0
   -2.2616    3.3712    0.0000 C   0  0  0  0  0  0  0  0  0  0  0  0
   -1.9227    4.3121    0.0000 C   0  0  0  0  0  0  0  0  0  0  0  0
   -0.9329    4.4871    0.0000 C   0  0  0  0  0  0  0  0  0  0  0  0
   -0.2819    3.7213    0.0000 C   0  0  0  0  0  0  0  0  0  0  0  0
   -0.5941    5.4280    0.0000 C   0  0  0  0  0  0  0  0  0  0  0  0
   -1.5349    5.7668    0.0000 F   0  0  0  0  0  0  0  0  0  0  0  0
    0.3468    5.0892    0.0000 F   0  0  0  0  0  0  0  0  0  0  0  0
   -0.2553    6.3688    0.0000 F   0  0  0  0  0  0  0  0  0  0  0  0
  1  2  1  0
  2 19  1  0
  2  3  1  0
  3  4  1  0
  4  5  1  0
  5  6  1  0
  6  7  1  0
  7  8  1  0
  8  9  1  0
  9 10  2  0
  9 11  1  0
 11 17  1  0
 11 12  2  0
 12 13  1  0
 13 14  2  0
 14 15  1  0
 14 16  1  0
 16 17  2  0
  5 18  1  0
 18 19  1  0
  2 20  1  0
 20 25  1  0
 20 21  2  0
 21 22  1  0
 22 23  2  0
 23 24  1  0
 24 25  2  0
 24 26  1  0
 26 27  1  0
 26 28  1  0
 26 29  1  0
M  END
>  <SMILES>  (177) 
O=C(CCCN1CC[Si](O)(c2cccc(C(F)(F)F)c2)CC1)c1ccc(F)cc1

>  <CollectionName>  (177) 
chembl

>  <LOG PLASMA PROTEIN BINDING (RAT) (% unbound)>  (177) 
0.650307523132

>  <Internal ID>  (177) 


>  <Source>  (177) 
AstraZeneca

$$$$
CHEMBL2216839
     RDKit          2D

 32 37  0  0  1  0  0  0  0  0999 V2000
    0.7838   -7.0307    0.0000 C   0  0  0  0  0  0  0  0  0  0  0  0
   -0.2111   -7.1324    0.0000 C   0  0  0  0  0  0  0  0  0  0  0  0
   -0.7972   -6.3157    0.0000 C   0  0  0  0  0  0  0  0  0  0  0  0
   -1.7920   -6.4174    0.0000 N   0  0  0  0  0  0  0  0  0  0  0  0
   -2.3751   -5.6049    0.0000 C   0  0  0  0  0  0  0  0  0  0  0  0
   -1.9631   -4.6938    0.0000 C   0  0  0  0  0  0  0  0  0  0  0  0
   -0.9794   -4.4896    0.0000 O   0  0  0  0  0  0  0  0  0  0  0  0
   -0.8739   -3.4948    0.0000 C   0  0  0  0  0  0  0  0  0  0  0  0
   -1.7845   -3.0817    0.0000 N   0  0  0  0  0  0  0  0  0  0  0  0
   -2.4579   -3.8230    0.0000 N   0  0  0  0  0  0  0  0  0  0  0  0
   -0.0059   -2.9983    0.0000 C   0  0  0  0  0  0  0  0  0  0  0  0
   -0.0053   -1.9977    0.0000 C   0  0  0  0  0  0  0  0  0  0  0  0
    0.8675   -1.4978    0.0000 C   0  0  0  0  0  0  0  0  0  0  0  0
    1.7397   -1.9985    0.0000 C   0  0  0  0  0  0  0  0  0  0  0  0
    1.7302   -3.0042    0.0000 C   0  0  0  0  0  0  0  0  0  0  0  0
    2.4763   -3.6808    0.0000 N   0  0  0  0  0  0  0  0  0  0  0  0
    2.0634   -4.5994    0.0000 N   0  0  0  0  0  0  0  0  0  0  0  0
    1.0622   -4.4906    0.0000 C   0  0  0  0  0  0  0  0  0  0  0  0
    0.8564   -3.5047    0.0000 C   0  0  0  0  0  0  0  0  0  0  0  0
    0.8680   -0.4978    0.0000 C   0  0  0  0  0  0  0  0  0  0  0  0
    0.0000    0.0000    0.0000 C   0  0  0  0  0  0  0  0  0  0  0  0
    0.0000    1.0058    0.0000 C   0  0  0  0  0  0  0  0  0  0  0  0
    0.8680    1.5138    0.0000 C   0  0  0  0  0  0  0  0  0  0  0  0
    1.7360    1.0058    0.0000 C   0  0  0  0  0  0  0  0  0  0  0  0
    2.6938    1.3169    0.0000 N   0  0  0  0  0  0  0  0  0  0  0  0
    3.2858    0.5023    0.0000 C   0  0  0  0  0  0  0  0  0  0  0  0
    2.6938   -0.3125    0.0000 C   0  0  0  0  0  0  0  0  0  0  0  0
    1.7360   -0.0012    0.0000 C   0  0  0  0  0  0  0  0  0  0  0  0
   -2.2067   -7.3274    0.0000 C   0  0  0  0  0  0  0  0  0  0  0  0
   -1.6206   -8.1440    0.0000 C   0  0  0  0  0  0  0  0  0  0  0  0
   -2.0353   -9.0539    0.0000 C   0  0  0  0  0  0  0  0  0  0  0  0
   -0.6198   -8.0506    0.0000 O   0  0  0  0  0  0  0  0  0  0  0  0
  2  1  1  1
  2 32  1  0
  2  3  1  0
  3  4  1  0
  4  5  1  0
  5  6  1  0
  6 10  2  0
  6  7  1  0
  7  8  1  0
  8  9  2  0
  9 10  1  0
  8 11  1  0
 11 19  1  0
 11 12  2  0
 12 13  1  0
 13 14  2  0
 14 15  1  0
 15 19  2  0
 15 16  1  0
 16 17  1  0
 17 18  2  0
 18 19  1  0
 13 20  1  0
 20 28  1  0
 20 21  2  0
 21 22  1  0
 22 23  2  0
 23 24  1  0
 24 28  2  0
 24 25  1  0
 25 26  1  0
 26 27  2  0
 27 28  1  0
  4 29  1  0
 29 30  1  0
 30 31  1  1
 30 32  1  0
M  END
>  <SMILES>  (178) 
C[C@@H]1CN(Cc2nnc(-c3cc(-c4cccc5[nH]ccc45)cc4[nH]ncc34)o2)C[C@H](C)O1

>  <CollectionName>  (178) 
chembl

>  <LOG PLASMA PROTEIN BINDING (RAT) (% unbound)>  (178) 
0.495544337546

>  <Internal ID>  (178) 


>  <Source>  (178) 
AstraZeneca

$$$$
CHEMBL428768
     RDKit          2D

 25 26  0  0  1  0  0  0  0  0999 V2000
    3.2442   -2.8810    0.0000 C   0  0  0  0  0  0  0  0  0  0  0  0
    3.2456   -1.8810    0.0000 C   0  0  0  0  0  0  0  0  0  0  0  0
    2.3803   -1.3797    0.0000 O   0  0  0  0  0  0  0  0  0  0  0  0
    2.3818   -0.3797    0.0000 C   0  0  0  0  0  0  0  0  0  0  0  0
    3.2485    0.1190    0.0000 O   0  0  0  0  0  0  0  0  0  0  0  0
    0.8675    0.4975    0.0000 C   0  0  0  0  0  0  0  0  0  0  0  0
    0.8675    1.5027    0.0000 C   0  0  0  0  0  0  0  0  0  0  0  0
    1.7350    2.0001    0.0000 C   0  0  0  0  0  0  0  0  0  0  0  0
   -0.0000    2.0104    0.0000 N   0  0  0  0  0  0  0  0  0  0  0  0
   -0.8675    1.5027    0.0000 C   0  0  0  0  0  0  0  0  0  0  0  0
   -0.8675    0.4975    0.0000 C   0  0  0  0  0  0  0  0  0  0  0  0
    0.0000    0.0000    0.0000 C   0  0  0  0  0  0  0  0  0  0  0  0
    0.0000   -1.7500    0.0000 C   0  0  0  0  0  0  0  0  0  0  0  0
   -0.8720   -2.2500    0.0000 C   0  0  0  0  0  0  0  0  0  0  0  0
   -0.8721   -3.2501    0.0000 C   0  0  0  0  0  0  0  0  0  0  0  0
   -0.0089   -3.7551    0.0000 C   0  0  0  0  0  0  0  0  0  0  0  0
    0.8631   -3.2551    0.0000 C   0  0  0  0  0  0  0  0  0  0  0  0
    1.7261   -3.7602    0.0000 Cl  0  0  0  0  0  0  0  0  0  0  0  0
    0.8720   -2.2500    0.0000 C   0  0  0  0  0  0  0  0  0  0  0  0
    1.7395   -1.7526    0.0000 Cl  0  0  0  0  0  0  0  0  0  0  0  0
   -1.7328   -0.0038    0.0000 C   0  0  0  0  0  0  0  0  0  0  0  0
   -2.5995    0.4950    0.0000 O   0  0  0  0  0  0  0  0  0  0  0  0
   -1.7313   -1.0038    0.0000 O   0  0  0  0  0  0  0  0  0  0  0  0
   -2.5966   -1.5050    0.0000 C   0  0  0  0  0  0  0  0  0  0  0  0
   -1.7350    2.0001    0.0000 C   0  0  0  0  0  0  0  0  0  0  0  0
  1  2  1  0
  2  3  1  0
  3  4  1  0
  4  5  2  0
  4  6  1  0
  6 12  1  0
  6  7  2  0
  7  8  1  0
  7  9  1  0
  9 10  1  0
 10 11  2  0
 11 12  1  0
 12 13  1  1
 13 19  1  0
 13 14  2  0
 14 15  1  0
 15 16  2  0
 16 17  1  0
 17 18  1  0
 17 19  2  0
 19 20  1  0
 11 21  1  0
 21 22  2  0
 21 23  1  0
 23 24  1  0
 10 25  1  0
M  END
>  <SMILES>  (179) 
CCOC(=O)C1=C(C)NC(C)=C(C(=O)OC)[C@@H]1c1cccc(Cl)c1Cl

>  <CollectionName>  (179) 
chembl

>  <LOG PLASMA PROTEIN BINDING (RAT) (% unbound)>  (179) 
-1.22184874962

>  <Internal ID>  (179) 


>  <Source>  (179) 
AstraZeneca

$$$$
CHEMBL396298
     RDKit          2D

 42 47  0  0  1  0  0  0  0  0999 V2000
    3.4746   -3.0059    0.0000 C   0  0  0  0  0  0  0  0  0  0  0  0
    4.3412   -2.5068    0.0000 O   0  0  0  0  0  0  0  0  0  0  0  0
    4.3422   -1.5068    0.0000 C   0  0  0  0  0  0  0  0  0  0  0  0
    5.2158   -1.0053    0.0000 C   0  0  0  0  0  0  0  0  0  0  0  0
    5.2154    0.0028    0.0000 C   0  0  0  0  0  0  0  0  0  0  0  0
    4.3415    0.5094    0.0000 C   0  0  0  0  0  0  0  0  0  0  0  0
    3.4735    0.0022    0.0000 C   0  0  0  0  0  0  0  0  0  0  0  0
    2.6012    0.5067    0.0000 C   0  0  0  0  0  0  0  0  0  0  0  0
    2.5985    1.5067    0.0000 O   0  0  0  0  0  0  0  0  0  0  0  0
    1.7358   -0.0000    0.0000 C   0  0  0  0  0  0  0  0  0  0  0  0
    0.8679    0.5079    0.0000 C   0  0  0  0  0  0  0  0  0  0  0  0
    0.0000    0.0000    0.0000 C   0  0  0  0  0  0  0  0  0  0  0  0
   -0.0000   -1.0057    0.0000 C   0  0  0  0  0  0  0  0  0  0  0  0
    0.8679   -1.5033    0.0000 C   0  0  0  0  0  0  0  0  0  0  0  0
    0.8676   -2.5033    0.0000 C   0  0  0  0  0  0  0  0  0  0  0  0
    0.0014   -3.0030    0.0000 O   0  0  0  0  0  0  0  0  0  0  0  0
    1.7334   -3.0036    0.0000 N   0  0  0  0  0  0  0  0  0  0  0  0
    1.7331   -4.0036    0.0000 C   0  0  0  0  0  0  0  0  0  0  0  0
    2.6050   -4.5039    0.0000 C   0  0  0  0  0  0  0  0  0  0  0  0
    2.6047   -5.5039    0.0000 C   0  0  0  0  0  0  0  0  0  0  0  0
    1.7414   -6.0087    0.0000 C   0  0  0  0  0  0  0  0  0  0  0  0
    1.7455   -7.0087    0.0000 C   0  0  0  0  0  0  0  0  0  0  0  0
    0.8815   -7.5122    0.0000 C   0  0  0  0  0  0  0  0  0  0  0  0
    0.8856   -8.5122    0.0000 N   0  0  0  0  0  0  0  0  0  0  0  0
    1.7617   -9.0121    0.0000 C   0  0  0  0  0  0  0  0  0  0  0  0
    1.7642  -10.0203    0.0000 C   0  0  0  0  0  0  0  0  0  0  0  0
    0.8979  -10.5265    0.0000 C   0  0  0  0  0  0  0  0  0  0  0  0
    0.9066  -11.5264    0.0000 C   0  0  0  0  0  0  0  0  0  0  0  0
    0.0436  -12.0389    0.0000 C   0  0  0  0  0  0  0  0  0  0  0  0
    0.0545  -13.0389    0.0000 O   0  0  0  0  0  0  0  0  0  0  0  0
   -0.8061  -13.5483    0.0000 C   0  0  0  0  0  0  0  0  0  0  0  0
   -0.8349  -11.5427    0.0000 C   0  0  0  0  0  0  0  0  0  0  0  0
   -1.6946  -12.0534    0.0000 O   0  0  0  0  0  0  0  0  0  0  0  0
   -2.5668  -11.5642    0.0000 C   0  0  0  0  0  0  0  0  0  0  0  0
   -0.8503  -10.5340    0.0000 C   0  0  0  0  0  0  0  0  0  0  0  0
    0.0216  -10.0265    0.0000 C   0  0  0  0  0  0  0  0  0  0  0  0
    0.0116   -9.0204    0.0000 C   0  0  0  0  0  0  0  0  0  0  0  0
    0.8696   -5.5084    0.0000 C   0  0  0  0  0  0  0  0  0  0  0  0
    0.8610   -4.5033    0.0000 C   0  0  0  0  0  0  0  0  0  0  0  0
    1.7371   -1.0057    0.0000 C   0  0  0  0  0  0  0  0  0  0  0  0
    2.6038   -1.5046    0.0000 N   0  0  0  0  0  0  0  0  0  0  0  0
    3.4738   -1.0059    0.0000 C   0  0  0  0  0  0  0  0  0  0  0  0
  1  2  1  0
  2  3  1  0
  3 42  2  0
  3  4  1  0
  4  5  2  0
  5  6  1  0
  6  7  2  0
  7 42  1  0
  7  8  1  0
  8  9  2  0
  8 10  1  0
 10 40  2  0
 10 11  1  0
 11 12  2  0
 12 13  1  0
 13 14  2  0
 14 15  1  0
 15 16  2  0
 15 17  1  0
 17 18  1  0
 18 39  1  0
 18 19  2  0
 19 20  1  0
 20 21  2  0
 21 22  1  0
 22 23  1  0
 23 24  1  0
 24 37  1  0
 24 25  1  0
 25 26  1  0
 26 27  1  0
 27 36  2  0
 27 28  1  0
 28 29  2  0
 29 30  1  0
 30 31  1  0
 29 32  1  0
 32 33  1  0
 33 34  1  0
 32 35  2  0
 35 36  1  0
 36 37  1  0
 21 38  1  0
 38 39  2  0
 14 40  1  0
 40 41  1  0
 41 42  1  0
M  END
>  <SMILES>  (180) 
COc1cc2c(cc1OC)CN(CCc1ccc(NC(=O)c3cccc4c(=O)c5cccc(OC)c5[nH]c34)cc1)CC2

>  <CollectionName>  (180) 
chembl

>  <LOG PLASMA PROTEIN BINDING (RAT) (% unbound)>  (180) 
0.25285303098

>  <Internal ID>  (180) 


>  <Source>  (180) 
AstraZeneca

$$$$
CHEMBL1621884
     RDKit          2D

 22 22  0  0  0  0  0  0  0  0999 V2000
   -6.0614   -0.5088    0.0000 C   0  0  0  0  0  0  0  0  0  0  0  0
   -5.1961   -0.0075    0.0000 O   0  0  0  0  0  0  0  0  0  0  0  0
   -4.3294   -0.5063    0.0000 C   0  0  0  0  0  0  0  0  0  0  0  0
   -3.4641   -0.0050    0.0000 C   0  0  0  0  0  0  0  0  0  0  0  0
   -2.5973   -0.5038    0.0000 C   0  0  0  0  0  0  0  0  0  0  0  0
   -1.7320   -0.0025    0.0000 C   0  0  0  0  0  0  0  0  0  0  0  0
   -0.8653   -0.5013    0.0000 C   0  0  0  0  0  0  0  0  0  0  0  0
   -0.8638   -1.5013    0.0000 N   0  0  0  0  0  0  0  0  0  0  0  0
   -1.7291   -2.0025    0.0000 O   0  0  0  0  0  0  0  0  0  0  0  0
   -1.7277   -3.0025    0.0000 C   0  0  0  0  0  0  0  0  0  0  0  0
   -2.5930   -3.5038    0.0000 C   0  0  0  0  0  0  0  0  0  0  0  0
   -2.5915   -4.5038    0.0000 N   0  0  0  0  0  0  0  0  0  0  0  0
    0.0000    0.0000    0.0000 C   0  0  0  0  0  0  0  0  0  0  0  0
    0.8675   -0.4975    0.0000 C   0  0  0  0  0  0  0  0  0  0  0  0
    1.7350    0.0000    0.0000 C   0  0  0  0  0  0  0  0  0  0  0  0
    1.7350    1.0052    0.0000 C   0  0  0  0  0  0  0  0  0  0  0  0
    0.8675    1.5129    0.0000 C   0  0  0  0  0  0  0  0  0  0  0  0
   -0.0000    1.0052    0.0000 C   0  0  0  0  0  0  0  0  0  0  0  0
    2.6025    1.5026    0.0000 C   0  0  0  0  0  0  0  0  0  0  0  0
    2.1051    2.3701    0.0000 F   0  0  0  0  0  0  0  0  0  0  0  0
    3.0999    0.6351    0.0000 F   0  0  0  0  0  0  0  0  0  0  0  0
    3.4700    2.0001    0.0000 F   0  0  0  0  0  0  0  0  0  0  0  0
  1  2  1  0
  2  3  1  0
  3  4  1  0
  4  5  1  0
  5  6  1  0
  6  7  1  0
  7  8  2  3
  8  9  1  0
  9 10  1  0
 10 11  1  0
 11 12  1  0
  7 13  1  0
 13 18  2  0
 13 14  1  0
 14 15  2  0
 15 16  1  0
 16 17  2  0
 17 18  1  0
 16 19  1  0
 19 20  1  0
 19 21  1  0
 19 22  1  0
M  END
>  <SMILES>  (181) 
COCCCCC(=NOCCN)c1ccc(C(F)(F)F)cc1

>  <CollectionName>  (181) 
chembl

>  <LOG PLASMA PROTEIN BINDING (RAT) (% unbound)>  (181) 
1.34986008219

>  <Internal ID>  (181) 


>  <Source>  (181) 
AstraZeneca

$$$$
CHEMBL2147222
     RDKit          2D

 33 35  0  0  0  0  0  0  0  0999 V2000
   -5.2184    4.9925    0.0000 C   0  0  0  0  0  0  0  0  0  0  0  0
   -6.0844    4.4925    0.0000 O   0  0  0  0  0  0  0  0  0  0  0  0
   -6.0844    3.4925    0.0000 C   0  0  0  0  0  0  0  0  0  0  0  0
   -6.9564    2.9925    0.0000 N   0  0  0  0  0  0  0  0  0  0  0  0
   -6.9475    1.9874    0.0000 C   0  0  0  0  0  0  0  0  0  0  0  0
   -6.0755    1.4874    0.0000 C   0  0  0  0  0  0  0  0  0  0  0  0
   -5.2123    1.9924    0.0000 C   0  0  0  0  0  0  0  0  0  0  0  0
   -5.2124    2.9925    0.0000 N   0  0  0  0  0  0  0  0  0  0  0  0
   -6.0710    0.4874    0.0000 C   0  0  0  0  0  0  0  0  0  0  0  0
   -6.9408   -0.0165    0.0000 C   0  0  0  0  0  0  0  0  0  0  0  0
   -6.9365   -1.0165    0.0000 C   0  0  0  0  0  0  0  0  0  0  0  0
   -6.0712   -1.5178    0.0000 C   0  0  0  0  0  0  0  0  0  0  0  0
   -5.2014   -1.0139    0.0000 C   0  0  0  0  0  0  0  0  0  0  0  0
   -4.3361   -1.5152    0.0000 F   0  0  0  0  0  0  0  0  0  0  0  0
   -5.1969   -0.0088    0.0000 C   0  0  0  0  0  0  0  0  0  0  0  0
   -4.3316    0.4925    0.0000 C   0  0  0  0  0  0  0  0  0  0  0  0
   -3.4648   -0.0063    0.0000 C   0  0  0  0  0  0  0  0  0  0  0  0
   -2.5995    0.4950    0.0000 N   0  0  0  0  0  0  0  0  0  0  0  0
   -1.7328   -0.0038    0.0000 C   0  0  0  0  0  0  0  0  0  0  0  0
   -1.7313   -1.0038    0.0000 O   0  0  0  0  0  0  0  0  0  0  0  0
   -0.8675    0.4975    0.0000 C   0  0  0  0  0  0  0  0  0  0  0  0
    0.0000    0.0000    0.0000 C   0  0  0  0  0  0  0  0  0  0  0  0
    0.8675    0.4975    0.0000 C   0  0  0  0  0  0  0  0  0  0  0  0
    0.8675    1.5027    0.0000 C   0  0  0  0  0  0  0  0  0  0  0  0
    1.7350    2.0001    0.0000 O   0  0  0  0  0  0  0  0  0  0  0  0
    1.7379    3.0001    0.0000 C   0  0  0  0  0  0  0  0  0  0  0  0
    2.6054    3.4976    0.0000 C   0  0  0  0  0  0  0  0  0  0  0  0
    2.6084    4.4976    0.0000 C   0  0  0  0  0  0  0  0  0  0  0  0
    1.6084    4.5005    0.0000 F   0  0  0  0  0  0  0  0  0  0  0  0
    3.6084    4.4946    0.0000 F   0  0  0  0  0  0  0  0  0  0  0  0
    2.6113    5.4976    0.0000 F   0  0  0  0  0  0  0  0  0  0  0  0
    0.0000    2.0104    0.0000 N   0  0  0  0  0  0  0  0  0  0  0  0
   -0.8675    1.5027    0.0000 C   0  0  0  0  0  0  0  0  0  0  0  0
  1  2  1  0
  2  3  1  0
  3  8  2  0
  3  4  1  0
  4  5  2  0
  5  6  1  0
  6  7  2  0
  7  8  1  0
  6  9  1  0
  9 15  1  0
  9 10  2  0
 10 11  1  0
 11 12  2  0
 12 13  1  0
 13 14  1  0
 13 15  2  0
 15 16  1  0
 16 17  1  0
 17 18  1  0
 18 19  1  0
 19 20  2  0
 19 21  1  0
 21 33  1  0
 21 22  2  0
 22 23  1  0
 23 24  2  0
 24 25  1  0
 25 26  1  0
 26 27  1  0
 27 28  1  0
 28 29  1  0
 28 30  1  0
 28 31  1  0
 24 32  1  0
 32 33  2  0
M  END
>  <SMILES>  (182) 
COc1ncc(-c2cccc(F)c2CCNC(=O)c2ccc(OCCC(F)(F)F)nc2)cn1

>  <CollectionName>  (182) 
chembl

>  <LOG PLASMA PROTEIN BINDING (RAT) (% unbound)>  (182) 
0.829946695942

>  <Internal ID>  (182) 


>  <Source>  (182) 
AstraZeneca

$$$$
CHEMBL2158437
     RDKit          2D

 23 25  0  0  0  0  0  0  0  0999 V2000
    4.3581    5.4975    0.0000 Cl  0  0  0  0  0  0  0  0  0  0  0  0
    4.3493    4.4975    0.0000 C   0  0  0  0  0  0  0  0  0  0  0  0
    5.2168    3.9898    0.0000 C   0  0  0  0  0  0  0  0  0  0  0  0
    5.2080    2.9898    0.0000 C   0  0  0  0  0  0  0  0  0  0  0  0
    4.3405    2.4924    0.0000 C   0  0  0  0  0  0  0  0  0  0  0  0
    3.4729    3.0001    0.0000 C   0  0  0  0  0  0  0  0  0  0  0  0
    2.6054    2.5026    0.0000 C   0  0  0  0  0  0  0  0  0  0  0  0
    2.6025    1.5026    0.0000 N   0  0  0  0  0  0  0  0  0  0  0  0
    1.7350    1.0052    0.0000 C   0  0  0  0  0  0  0  0  0  0  0  0
    1.7350    0.0000    0.0000 N   0  0  0  0  0  0  0  0  0  0  0  0
    0.8675   -0.4975    0.0000 C   0  0  0  0  0  0  0  0  0  0  0  0
    0.0000    0.0000    0.0000 C   0  0  0  0  0  0  0  0  0  0  0  0
    0.0000    1.0052    0.0000 C   0  0  0  0  0  0  0  0  0  0  0  0
   -0.8675    1.5026    0.0000 O   0  0  0  0  0  0  0  0  0  0  0  0
    0.8675    1.5129    0.0000 N   0  0  0  0  0  0  0  0  0  0  0  0
    0.8675   -1.4975    0.0000 N   0  0  0  0  0  0  0  0  0  0  0  0
    1.7350   -1.9950    0.0000 C   0  0  0  0  0  0  0  0  0  0  0  0
    1.7350   -3.0002    0.0000 C   0  0  0  0  0  0  0  0  0  0  0  0
    0.8675   -3.5079    0.0000 O   0  0  0  0  0  0  0  0  0  0  0  0
    0.0000   -3.0002    0.0000 C   0  0  0  0  0  0  0  0  0  0  0  0
    0.0000   -1.9950    0.0000 C   0  0  0  0  0  0  0  0  0  0  0  0
    3.4729    4.0052    0.0000 C   0  0  0  0  0  0  0  0  0  0  0  0
    2.6099    4.5103    0.0000 Cl  0  0  0  0  0  0  0  0  0  0  0  0
  1  2  1  0
  2 22  2  0
  2  3  1  0
  3  4  2  0
  4  5  1  0
  5  6  2  0
  6  7  1  0
  7  8  1  0
  8  9  1  0
  9 15  1  0
  9 10  2  0
 10 11  1  0
 11 12  2  0
 12 13  1  0
 13 14  2  0
 13 15  1  0
 11 16  1  0
 16 21  1  0
 16 17  1  0
 17 18  1  0
 18 19  1  0
 19 20  1  0
 20 21  1  0
  6 22  1  0
 22 23  1  0
M  END
>  <SMILES>  (183) 
O=c1cc(N2CCOCC2)nc(NCc2cccc(Cl)c2Cl)[nH]1

>  <CollectionName>  (183) 
chembl

>  <LOG PLASMA PROTEIN BINDING (RAT) (% unbound)>  (183) 
0.25285303098

>  <Internal ID>  (183) 


>  <Source>  (183) 
AstraZeneca

$$$$
CHEMBL2158771
     RDKit          2D

 35 38  0  0  1  0  0  0  0  0999 V2000
    0.8660    4.5104    0.0000 O   0  0  0  0  0  0  0  0  0  0  0  0
    0.8660    3.5104    0.0000 C   0  0  0  0  0  0  0  0  0  0  0  0
    1.7321    3.0104    0.0000 O   0  0  0  0  0  0  0  0  0  0  0  0
   -0.0000    3.0104    0.0000 C   0  0  0  0  0  0  0  0  0  0  0  0
   -0.8660    3.5104    0.0000 C   0  0  0  0  0  0  0  0  0  0  0  0
   -0.8660    4.5104    0.0000 C   0  0  0  0  0  0  0  0  0  0  0  0
   -0.0007    5.0117    0.0000 C   0  0  0  0  0  0  0  0  0  0  0  0
    0.0037    6.0117    0.0000 C   0  0  0  0  0  0  0  0  0  0  0  0
   -0.8661    6.5156    0.0000 C   0  0  0  0  0  0  0  0  0  0  0  0
   -1.7403    6.0194    0.0000 C   0  0  0  0  0  0  0  0  0  0  0  0
   -1.7358    5.0143    0.0000 C   0  0  0  0  0  0  0  0  0  0  0  0
   -0.8617    7.5155    0.0000 C   0  0  0  0  0  0  0  0  0  0  0  0
   -0.8573    8.5155    0.0000 N   0  0  0  0  0  0  0  0  0  0  0  0
   -0.0000    2.0104    0.0000 N   0  0  0  0  0  0  0  0  0  0  0  0
   -0.8675    1.5027    0.0000 C   0  0  0  0  0  0  0  0  0  0  0  0
   -0.8675    0.4975    0.0000 C   0  0  0  0  0  0  0  0  0  0  0  0
    0.0000    0.0000    0.0000 C   0  0  0  0  0  0  0  0  0  0  0  0
    0.0000   -1.0000    0.0000 C   0  0  0  0  0  0  0  0  0  0  0  0
    0.8660   -1.5000    0.0000 N   0  0  0  0  0  0  0  0  0  0  0  0
    0.8720   -2.5051    0.0000 C   0  0  0  0  0  0  0  0  0  0  0  0
    1.7425   -3.0077    0.0000 C   0  0  0  0  0  0  0  0  0  0  0  0
    2.6071   -2.5052    0.0000 C   0  0  0  0  0  0  0  0  0  0  0  0
    2.6100   -1.5052    0.0000 C   0  0  0  0  0  0  0  0  0  0  0  0
    1.7395   -1.0026    0.0000 C   0  0  0  0  0  0  0  0  0  0  0  0
    3.4731   -3.0052    0.0000 O   0  0  0  0  0  0  0  0  0  0  0  0
    3.4731   -4.0052    0.0000 C   0  0  0  0  0  0  0  0  0  0  0  0
    2.6011   -4.5052    0.0000 C   0  0  0  0  0  0  0  0  0  0  0  0
    2.6011   -5.5053    0.0000 C   0  0  0  0  0  0  0  0  0  0  0  0
    3.4642   -6.0103    0.0000 C   0  0  0  0  0  0  0  0  0  0  0  0
    3.4598   -7.0103    0.0000 Cl  0  0  0  0  0  0  0  0  0  0  0  0
    4.3362   -5.5103    0.0000 C   0  0  0  0  0  0  0  0  0  0  0  0
    5.1992   -6.0154    0.0000 Cl  0  0  0  0  0  0  0  0  0  0  0  0
    4.3451   -4.5052    0.0000 C   0  0  0  0  0  0  0  0  0  0  0  0
    0.8675    0.4975    0.0000 C   0  0  0  0  0  0  0  0  0  0  0  0
    0.8675    1.5027    0.0000 C   0  0  0  0  0  0  0  0  0  0  0  0
  1  2  1  0
  2  3  2  0
  4  2  1  0
  4  5  1  1
  5  6  1  0
  6 11  1  0
  6  7  2  0
  7  8  1  0
  8  9  2  0
  9 10  1  0
 10 11  2  0
  9 12  1  0
 12 13  3  0
  4 14  1  0
 14 35  1  0
 14 15  1  0
 15 16  1  0
 16 17  1  0
 17 18  1  0
 18 19  1  0
 19 24  1  0
 19 20  1  0
 20 21  1  0
 21 22  1  0
 22 23  1  0
 23 24  1  0
 22 25  1  0
 25 26  1  0
 26 33  1  0
 26 27  2  0
 27 28  1  0
 28 29  2  0
 29 30  1  0
 29 31  1  0
 31 32  1  0
 31 33  2  0
 17 34  1  0
 34 35  1  0
M  END
>  <SMILES>  (184) 
N#Cc1ccc(C[C@@H](C(=O)O)N2CCC(CN3CCC(Oc4ccc(Cl)c(Cl)c4)CC3)CC2)cc1

>  <CollectionName>  (184) 
chembl

>  <LOG PLASMA PROTEIN BINDING (RAT) (% unbound)>  (184) 
0.985875357308

>  <Internal ID>  (184) 


>  <Source>  (184) 
AstraZeneca

$$$$
CHEMBL2164364
     RDKit          2D

 33 36  0  0  1  0  0  0  0  0999 V2000
    7.5722    4.5123    0.0000 F   0  0  0  0  0  0  0  0  0  0  0  0
    8.5218    4.1990    0.0000 C   0  0  0  0  0  0  0  0  0  0  0  0
    9.4715    3.8858    0.0000 F   0  0  0  0  0  0  0  0  0  0  0  0
    8.8351    5.1487    0.0000 F   0  0  0  0  0  0  0  0  0  0  0  0
    8.2086    3.2494    0.0000 O   0  0  0  0  0  0  0  0  0  0  0  0
    7.2295    3.0458    0.0000 C   0  0  0  0  0  0  0  0  0  0  0  0
    6.9175    2.0903    0.0000 C   0  0  0  0  0  0  0  0  0  0  0  0
    5.9384    1.8866    0.0000 C   0  0  0  0  0  0  0  0  0  0  0  0
    5.2682    2.6288    0.0000 C   0  0  0  0  0  0  0  0  0  0  0  0
    4.2901    2.4210    0.0000 C   0  0  0  0  0  0  0  0  0  0  0  0
    3.9810    1.4699    0.0000 N   0  0  0  0  0  0  0  0  0  0  0  0
    3.0029    1.2620    0.0000 C   0  0  0  0  0  0  0  0  0  0  0  0
    2.3337    2.0052    0.0000 O   0  0  0  0  0  0  0  0  0  0  0  0
    2.6938    0.3110    0.0000 C   0  0  0  0  0  0  0  0  0  0  0  0
    3.2858   -0.5036    0.0000 N   0  0  0  0  0  0  0  0  0  0  0  0
    4.2858   -0.5035    0.0000 C   0  0  0  0  0  0  0  0  0  0  0  0
    4.7859   -1.3695    0.0000 C   0  0  0  0  0  0  0  0  0  0  0  0
    5.7859   -1.3695    0.0000 C   0  0  0  0  0  0  0  0  0  0  0  0
    6.2859   -2.2414    0.0000 N   0  0  0  0  0  0  0  0  0  0  0  0
    7.2910   -2.2325    0.0000 C   0  0  0  0  0  0  0  0  0  0  0  0
    7.7910   -1.3604    0.0000 C   0  0  0  0  0  0  0  0  0  0  0  0
    7.2859   -0.4973    0.0000 C   0  0  0  0  0  0  0  0  0  0  0  0
    6.2858   -0.4974    0.0000 N   0  0  0  0  0  0  0  0  0  0  0  0
    2.6938   -1.3184    0.0000 C   0  0  0  0  0  0  0  0  0  0  0  0
    3.0028   -2.2695    0.0000 O   0  0  0  0  0  0  0  0  0  0  0  0
    1.7360   -1.0071    0.0000 C   0  0  0  0  0  0  0  0  0  0  0  0
    0.8680   -1.5037    0.0000 C   0  0  0  0  0  0  0  0  0  0  0  0
    0.0000   -1.0058    0.0000 C   0  0  0  0  0  0  0  0  0  0  0  0
    0.0000    0.0000    0.0000 C   0  0  0  0  0  0  0  0  0  0  0  0
    0.8680    0.5079    0.0000 C   0  0  0  0  0  0  0  0  0  0  0  0
    1.7360   -0.0000    0.0000 C   0  0  0  0  0  0  0  0  0  0  0  0
    5.5803    3.5844    0.0000 C   0  0  0  0  0  0  0  0  0  0  0  0
    6.5625    3.7977    0.0000 C   0  0  0  0  0  0  0  0  0  0  0  0
  1  2  1  0
  2  3  1  0
  2  4  1  0
  2  5  1  0
  5  6  1  0
  6 33  2  0
  6  7  1  0
  7  8  2  0
  8  9  1  0
  9 10  1  0
 10 11  1  0
 11 12  1  0
 12 13  2  0
 12 14  1  0
 14 31  1  0
 14 15  1  0
 15 16  1  0
 16 17  1  0
 17 18  1  0
 18 23  1  0
 18 19  2  0
 19 20  1  0
 20 21  2  0
 21 22  1  0
 22 23  2  0
 15 24  1  0
 24 25  2  0
 24 26  1  0
 26 31  2  0
 26 27  1  0
 27 28  2  0
 28 29  1  0
 29 30  2  0
 30 31  1  0
  9 32  2  0
 32 33  1  0
M  END
>  <SMILES>  (185) 
O=C(NCc1ccc(OC(F)(F)F)cc1)C1c2ccccc2C(=O)N1CCc1ncccn1

>  <CollectionName>  (185) 
chembl

>  <LOG PLASMA PROTEIN BINDING (RAT) (% unbound)>  (185) 
1.11025291735

>  <Internal ID>  (185) 


>  <Source>  (185) 
AstraZeneca

$$$$
CHEMBL2164565
     RDKit          2D

 27 29  0  0  0  0  0  0  0  0999 V2000
    4.7860   -2.0958    0.0000 C   0  0  0  0  0  0  0  0  0  0  0  0
    4.2859   -1.2298    0.0000 C   0  0  0  0  0  0  0  0  0  0  0  0
    4.7859   -0.3637    0.0000 N   0  0  0  0  0  0  0  0  0  0  0  0
    5.7859   -0.3637    0.0000 C   0  0  0  0  0  0  0  0  0  0  0  0
    6.2858    0.5024    0.0000 C   0  0  0  0  0  0  0  0  0  0  0  0
    7.2858    0.5024    0.0000 O   0  0  0  0  0  0  0  0  0  0  0  0
    4.2858    0.5023    0.0000 C   0  0  0  0  0  0  0  0  0  0  0  0
    4.7857    1.3683    0.0000 O   0  0  0  0  0  0  0  0  0  0  0  0
    3.2858    0.5022    0.0000 C   0  0  0  0  0  0  0  0  0  0  0  0
    2.6938   -0.3126    0.0000 C   0  0  0  0  0  0  0  0  0  0  0  0
    1.7360   -0.0013    0.0000 C   0  0  0  0  0  0  0  0  0  0  0  0
    0.8680   -0.4979    0.0000 C   0  0  0  0  0  0  0  0  0  0  0  0
    0.0000    0.0000    0.0000 C   0  0  0  0  0  0  0  0  0  0  0  0
   -0.0000    1.0058    0.0000 C   0  0  0  0  0  0  0  0  0  0  0  0
    0.8680    1.5137    0.0000 N   0  0  0  0  0  0  0  0  0  0  0  0
    1.7360    1.0058    0.0000 N   0  0  0  0  0  0  0  0  0  0  0  0
    2.6938    1.3168    0.0000 C   0  0  0  0  0  0  0  0  0  0  0  0
    3.0029    2.2678    0.0000 C   0  0  0  0  0  0  0  0  0  0  0  0
    3.9867    2.4739    0.0000 C   0  0  0  0  0  0  0  0  0  0  0  0
    4.2958    3.4250    0.0000 C   0  0  0  0  0  0  0  0  0  0  0  0
    3.6310    4.1721    0.0000 C   0  0  0  0  0  0  0  0  0  0  0  0
    2.6472    3.9660    0.0000 C   0  0  0  0  0  0  0  0  0  0  0  0
    2.3281    3.0129    0.0000 C   0  0  0  0  0  0  0  0  0  0  0  0
    1.9825    4.7131    0.0000 C   0  0  0  0  0  0  0  0  0  0  0  0
    1.2354    4.0484    0.0000 F   0  0  0  0  0  0  0  0  0  0  0  0
    2.7296    5.3778    0.0000 F   0  0  0  0  0  0  0  0  0  0  0  0
    1.3178    5.4602    0.0000 F   0  0  0  0  0  0  0  0  0  0  0  0
  1  2  1  0
  2  3  1  0
  3  4  1  0
  4  5  1  0
  5  6  1  0
  3  7  1  0
  7  8  2  0
  7  9  1  0
  9 17  2  0
  9 10  1  0
 10 11  2  0
 11 16  1  0
 11 12  1  0
 12 13  2  0
 13 14  1  0
 14 15  2  0
 15 16  1  0
 16 17  1  0
 17 18  1  0
 18 23  1  0
 18 19  2  0
 19 20  1  0
 20 21  2  0
 21 22  1  0
 22 23  2  0
 22 24  1  0
 24 25  1  0
 24 26  1  0
 24 27  1  0
M  END
>  <SMILES>  (186) 
CCN(CCO)C(=O)c1cc2cccnn2c1-c1cccc(C(F)(F)F)c1

>  <CollectionName>  (186) 
chembl

>  <LOG PLASMA PROTEIN BINDING (RAT) (% unbound)>  (186) 
0.940516484933

>  <Internal ID>  (186) 


>  <Source>  (186) 
AstraZeneca

$$$$
CHEMBL2165177
     RDKit          2D

 26 29  0  0  1  0  0  0  0  0999 V2000
   -0.8704    2.5026    0.0000 C   0  0  0  0  0  0  0  0  0  0  0  0
   -0.8675    1.5026    0.0000 N   0  0  0  0  0  0  0  0  0  0  0  0
   -1.7320    1.0001    0.0000 C   0  0  0  0  0  0  0  0  0  0  0  0
   -2.5995    1.4975    0.0000 C   0  0  0  0  0  0  0  0  0  0  0  0
   -3.4725    0.9941    0.0000 C   0  0  0  0  0  0  0  0  0  0  0  0
   -4.3442    1.4956    0.0000 C   0  0  0  0  0  0  0  0  0  0  0  0
   -4.3430    2.5004    0.0000 C   0  0  0  0  0  0  0  0  0  0  0  0
   -3.4777    3.0018    0.0000 C   0  0  0  0  0  0  0  0  0  0  0  0
   -3.4745    4.0035    0.0000 C   0  0  0  0  0  0  0  0  0  0  0  0
   -2.6096    4.5064    0.0000 C   0  0  0  0  0  0  0  0  0  0  0  0
   -1.7385    4.0038    0.0000 C   0  0  0  0  0  0  0  0  0  0  0  0
   -1.7324    2.9983    0.0000 C   0  0  0  0  0  0  0  0  0  0  0  0
   -2.6059    2.5003    0.0000 C   0  0  0  0  0  0  0  0  0  0  0  0
    0.0000    1.0052    0.0000 C   0  0  0  0  0  0  0  0  0  0  0  0
    0.0000    0.0000    0.0000 C   0  0  0  0  0  0  0  0  0  0  0  0
    0.8675   -0.4975    0.0000 C   0  0  0  0  0  0  0  0  0  0  0  0
    1.7350    0.0000    0.0000 N   0  0  0  0  0  0  0  0  0  0  0  0
    1.7350    1.0052    0.0000 C   0  0  0  0  0  0  0  0  0  0  0  0
    2.6025    1.5026    0.0000 O   0  0  0  0  0  0  0  0  0  0  0  0
    0.8675    1.5129    0.0000 N   0  0  0  0  0  0  0  0  0  0  0  0
    0.8675   -1.4975    0.0000 N   0  0  0  0  0  0  0  0  0  0  0  0
    1.7350   -1.9950    0.0000 C   0  0  0  0  0  0  0  0  0  0  0  0
    1.7350   -3.0002    0.0000 C   0  0  0  0  0  0  0  0  0  0  0  0
    0.8675   -3.5079    0.0000 O   0  0  0  0  0  0  0  0  0  0  0  0
    0.0000   -3.0002    0.0000 C   0  0  0  0  0  0  0  0  0  0  0  0
    0.0000   -1.9950    0.0000 C   0  0  0  0  0  0  0  0  0  0  0  0
  1  2  1  0
  2  3  1  0
  3  4  1  0
  4 13  1  0
  4  5  2  0
  5  6  1  0
  6  7  2  0
  7  8  1  0
  8 13  2  0
  8  9  1  0
  9 10  2  0
 10 11  1  0
 11 12  2  0
 12 13  1  0
  2 14  1  0
 14 20  1  0
 14 15  2  0
 15 16  1  0
 16 17  2  0
 17 18  1  0
 18 19  2  0
 18 20  1  0
 16 21  1  0
 21 26  1  0
 21 22  1  0
 22 23  1  0
 23 24  1  0
 24 25  1  0
 25 26  1  0
M  END
>  <SMILES>  (187) 
CN(Cc1cccc2ccccc12)c1cc(N2CCOCC2)nc(=O)[nH]1

>  <CollectionName>  (187) 
chembl

>  <LOG PLASMA PROTEIN BINDING (RAT) (% unbound)>  (187) 
-0.193820026016

>  <Internal ID>  (187) 


>  <Source>  (187) 
AstraZeneca

$$$$
CHEMBL2169920
     RDKit          2D

 39 42  0  0  0  0  0  0  0  0999 V2000
    0.8676   -1.4977    0.0000 O   0  0  0  0  0  0  0  0  0  0  0  0
    0.8679   -0.4977    0.0000 C   0  0  0  0  0  0  0  0  0  0  0  0
    0.0000    0.0000    0.0000 C   0  0  0  0  0  0  0  0  0  0  0  0
    0.0000    1.0056    0.0000 C   0  0  0  0  0  0  0  0  0  0  0  0
    0.8679    1.5135    0.0000 C   0  0  0  0  0  0  0  0  0  0  0  0
    0.8679    2.5135    0.0000 C   0  0  0  0  0  0  0  0  0  0  0  0
    1.7339    3.0135    0.0000 C   0  0  0  0  0  0  0  0  0  0  0  0
    1.7339    4.0135    0.0000 N   0  0  0  0  0  0  0  0  0  0  0  0
    2.6000    4.5135    0.0000 C   0  0  0  0  0  0  0  0  0  0  0  0
    2.6000    5.5135    0.0000 C   0  0  0  0  0  0  0  0  0  0  0  0
    3.4660    6.0135    0.0000 N   0  0  0  0  0  0  0  0  0  0  0  0
    3.4660    7.0135    0.0000 C   0  0  0  0  0  0  0  0  0  0  0  0
    2.5940    7.5135    0.0000 C   0  0  0  0  0  0  0  0  0  0  0  0
    2.5939    8.5136    0.0000 C   0  0  0  0  0  0  0  0  0  0  0  0
    3.4570    9.0186    0.0000 C   0  0  0  0  0  0  0  0  0  0  0  0
    4.3290    8.5186    0.0000 C   0  0  0  0  0  0  0  0  0  0  0  0
    4.3379    7.5135    0.0000 C   0  0  0  0  0  0  0  0  0  0  0  0
    4.3320    5.5135    0.0000 C   0  0  0  0  0  0  0  0  0  0  0  0
    5.1980    6.0135    0.0000 O   0  0  0  0  0  0  0  0  0  0  0  0
    4.3320    4.5135    0.0000 C   0  0  0  0  0  0  0  0  0  0  0  0
    5.1980    4.0135    0.0000 C   0  0  0  0  0  0  0  0  0  0  0  0
    5.1980    3.0135    0.0000 N   0  0  0  0  0  0  0  0  0  0  0  0
    6.0641    2.5135    0.0000 C   0  0  0  0  0  0  0  0  0  0  0  0
    6.0641    1.5135    0.0000 C   0  0  0  0  0  0  0  0  0  0  0  0
    6.9301    1.0135    0.0000 C   0  0  0  0  0  0  0  0  0  0  0  0
    6.9271    0.0083    0.0000 C   0  0  0  0  0  0  0  0  0  0  0  0
    7.7931   -0.4918    0.0000 C   0  0  0  0  0  0  0  0  0  0  0  0
    8.6621    0.0032    0.0000 C   0  0  0  0  0  0  0  0  0  0  0  0
    9.5259   -0.5006    0.0000 Cl  0  0  0  0  0  0  0  0  0  0  0  0
    8.6651    1.0084    0.0000 C   0  0  0  0  0  0  0  0  0  0  0  0
    9.5340    1.5033    0.0000 Cl  0  0  0  0  0  0  0  0  0  0  0  0
    7.7991    1.5186    0.0000 C   0  0  0  0  0  0  0  0  0  0  0  0
    1.7358    1.0056    0.0000 C   0  0  0  0  0  0  0  0  0  0  0  0
    2.6012    1.5123    0.0000 O   0  0  0  0  0  0  0  0  0  0  0  0
    3.4735    1.0079    0.0000 C   0  0  0  0  0  0  0  0  0  0  0  0
    3.4748    0.0023    0.0000 C   0  0  0  0  0  0  0  0  0  0  0  0
    4.3408   -0.4978    0.0000 O   0  0  0  0  0  0  0  0  0  0  0  0
    2.6038   -0.4989    0.0000 N   0  0  0  0  0  0  0  0  0  0  0  0
    1.7371    0.0000    0.0000 C   0  0  0  0  0  0  0  0  0  0  0  0
  1  2  1  0
  2 39  2  0
  2  3  1  0
  3  4  2  0
  4  5  1  0
  5  6  1  0
  6  7  1  0
  7  8  1  0
  8  9  1  0
  9 10  1  0
 10 11  1  0
 11 12  1  0
 12 17  1  0
 12 13  1  0
 13 14  1  0
 14 15  1  0
 15 16  1  0
 16 17  1  0
 11 18  1  0
 18 19  2  0
 18 20  1  0
 20 21  1  0
 21 22  1  0
 22 23  1  0
 23 24  1  0
 24 25  1  0
 25 32  1  0
 25 26  2  0
 26 27  1  0
 27 28  2  0
 28 29  1  0
 28 30  1  0
 30 31  1  0
 30 32  2  0
  5 33  2  0
 33 39  1  0
 33 34  1  0
 34 35  1  0
 35 36  1  0
 36 37  2  0
 36 38  1  0
 38 39  1  0
M  END
>  <SMILES>  (188) 
O=C1COc2c(CCNCCN(C(=O)CCNCCc3ccc(Cl)c(Cl)c3)C3CCCCC3)ccc(O)c2N1

>  <CollectionName>  (188) 
chembl

>  <LOG PLASMA PROTEIN BINDING (RAT) (% unbound)>  (188) 
0.903632516084

>  <Internal ID>  (188) 


>  <Source>  (188) 
AstraZeneca

$$$$
CHEMBL2177736
     RDKit          2D

 29 32  0  0  1  0  0  0  0  0999 V2000
    0.8682    2.5065    0.0000 N   0  0  0  0  0  0  0  0  0  0  0  0
    1.7349    3.0052    0.0000 C   0  0  0  0  0  0  0  0  0  0  0  0
    1.7378    4.0053    0.0000 C   0  0  0  0  0  0  0  0  0  0  0  0
    2.6024    4.5078    0.0000 C   0  0  0  0  0  0  0  0  0  0  0  0
    3.4729    4.0052    0.0000 C   0  0  0  0  0  0  0  0  0  0  0  0
    3.4789    3.0001    0.0000 C   0  0  0  0  0  0  0  0  0  0  0  0
    2.6054    2.5026    0.0000 C   0  0  0  0  0  0  0  0  0  0  0  0
    2.6025    1.5026    0.0000 N   0  0  0  0  0  0  0  0  0  0  0  0
    1.7350    1.0052    0.0000 C   0  0  0  0  0  0  0  0  0  0  0  0
    0.8675    1.5129    0.0000 N   0  0  0  0  0  0  0  0  0  0  0  0
    0.0000    1.0052    0.0000 C   0  0  0  0  0  0  0  0  0  0  0  0
    0.0000    0.0000    0.0000 C   0  0  0  0  0  0  0  0  0  0  0  0
   -0.8653   -0.5013    0.0000 C   0  0  0  0  0  0  0  0  0  0  0  0
   -1.7320   -0.0025    0.0000 O   0  0  0  0  0  0  0  0  0  0  0  0
   -0.8638   -1.5013    0.0000 N   0  0  0  0  0  0  0  0  0  0  0  0
    0.8675   -0.4975    0.0000 C   0  0  0  0  0  0  0  0  0  0  0  0
    0.8675   -1.4975    0.0000 N   0  0  0  0  0  0  0  0  0  0  0  0
    1.7335   -1.9975    0.0000 C   0  0  0  0  0  0  0  0  0  0  0  0
    2.6026   -1.4923    0.0000 C   0  0  0  0  0  0  0  0  0  0  0  0
    3.4686   -1.9923    0.0000 C   0  0  0  0  0  0  0  0  0  0  0  0
    3.4745   -2.9923    0.0000 C   0  0  0  0  0  0  0  0  0  0  0  0
    2.6055   -3.4975    0.0000 C   0  0  0  0  0  0  0  0  0  0  0  0
    1.7306   -3.0026    0.0000 C   0  0  0  0  0  0  0  0  0  0  0  0
    2.6114   -4.4975    0.0000 N   0  0  0  0  0  0  0  0  0  0  0  0
    1.8052   -5.0918    0.0000 N   0  0  0  0  0  0  0  0  0  0  0  0
    2.1189   -6.0428    0.0000 C   0  0  0  0  0  0  0  0  0  0  0  0
    3.1188   -6.0357    0.0000 C   0  0  0  0  0  0  0  0  0  0  0  0
    3.4270   -5.0840    0.0000 N   0  0  0  0  0  0  0  0  0  0  0  0
    1.7350    0.0000    0.0000 N   0  0  0  0  0  0  0  0  0  0  0  0
  2  1  1  1
  2  7  1  0
  2  3  1  0
  3  4  1  0
  4  5  1  0
  5  6  1  0
  6  7  1  0
  7  8  1  1
  8  9  1  0
  9 29  1  0
  9 10  2  0
 10 11  1  0
 11 12  2  0
 12 13  1  0
 13 14  2  0
 13 15  1  0
 12 16  1  0
 16 17  1  0
 17 18  1  0
 18 23  1  0
 18 19  2  0
 19 20  1  0
 20 21  2  0
 21 22  1  0
 22 23  2  0
 22 24  1  0
 24 28  1  0
 24 25  1  0
 25 26  2  0
 26 27  1  0
 27 28  2  0
 16 29  2  0
M  END
>  <SMILES>  (189) 
NC(=O)c1cnc(N[C@@H]2CCCC[C@@H]2N)nc1Nc1cccc(-n2nccn2)c1

>  <CollectionName>  (189) 
chembl

>  <LOG PLASMA PROTEIN BINDING (RAT) (% unbound)>  (189) 
0.912753303671

>  <Internal ID>  (189) 


>  <Source>  (189) 
AstraZeneca

$$$$
CHEMBL2181753
     RDKit          2D

 36 38  0  0  0  0  0  0  0  0999 V2000
    2.6143    5.5026    0.0000 C   0  0  0  0  0  0  0  0  0  0  0  0
    2.6113    4.5026    0.0000 C   0  0  0  0  0  0  0  0  0  0  0  0
    3.4759    4.0001    0.0000 N   0  0  0  0  0  0  0  0  0  0  0  0
    4.3434    4.4975    0.0000 C   0  0  0  0  0  0  0  0  0  0  0  0
    5.2079    3.9950    0.0000 C   0  0  0  0  0  0  0  0  0  0  0  0
    5.2020    2.9898    0.0000 C   0  0  0  0  0  0  0  0  0  0  0  0
    6.0754    2.4924    0.0000 C   0  0  0  0  0  0  0  0  0  0  0  0
    6.9460    2.9950    0.0000 C   0  0  0  0  0  0  0  0  0  0  0  0
    6.9431    3.9950    0.0000 C   0  0  0  0  0  0  0  0  0  0  0  0
    6.0785    4.4976    0.0000 C   0  0  0  0  0  0  0  0  0  0  0  0
    6.0799    5.4976    0.0000 C   0  0  0  0  0  0  0  0  0  0  0  0
    6.9526    5.9963    0.0000 C   0  0  0  0  0  0  0  0  0  0  0  0
    6.9452    7.0014    0.0000 C   0  0  0  0  0  0  0  0  0  0  0  0
    7.8090    7.5053    0.0000 C   0  0  0  0  0  0  0  0  0  0  0  0
    7.8045    8.5053    0.0000 C   0  0  0  0  0  0  0  0  0  0  0  0
    6.9363    9.0014    0.0000 O   0  0  0  0  0  0  0  0  0  0  0  0
    8.6683    9.0091    0.0000 O   0  0  0  0  0  0  0  0  0  0  0  0
    6.0739    7.5027    0.0000 C   0  0  0  0  0  0  0  0  0  0  0  0
    5.2100    6.9989    0.0000 C   0  0  0  0  0  0  0  0  0  0  0  0
    5.2086    5.9989    0.0000 C   0  0  0  0  0  0  0  0  0  0  0  0
    4.3426    5.4988    0.0000 O   0  0  0  0  0  0  0  0  0  0  0  0
    3.4766    5.9988    0.0000 C   0  0  0  0  0  0  0  0  0  0  0  0
    6.0784    1.4924    0.0000 C   0  0  0  0  0  0  0  0  0  0  0  0
    7.0784    1.4954    0.0000 F   0  0  0  0  0  0  0  0  0  0  0  0
    5.0784    1.4895    0.0000 F   0  0  0  0  0  0  0  0  0  0  0  0
    6.0813    0.4924    0.0000 F   0  0  0  0  0  0  0  0  0  0  0  0
    3.4729    3.0001    0.0000 C   0  0  0  0  0  0  0  0  0  0  0  0
    4.3375    2.4975    0.0000 O   0  0  0  0  0  0  0  0  0  0  0  0
    2.6054    2.5026    0.0000 N   0  0  0  0  0  0  0  0  0  0  0  0
    2.6025    1.5026    0.0000 C   0  0  0  0  0  0  0  0  0  0  0  0
    1.7350    1.0052    0.0000 C   0  0  0  0  0  0  0  0  0  0  0  0
    1.7350   -0.0000    0.0000 C   0  0  0  0  0  0  0  0  0  0  0  0
    0.8675   -0.4975    0.0000 C   0  0  0  0  0  0  0  0  0  0  0  0
    0.0000    0.0000    0.0000 C   0  0  0  0  0  0  0  0  0  0  0  0
    0.0000    1.0052    0.0000 C   0  0  0  0  0  0  0  0  0  0  0  0
    0.8675    1.5129    0.0000 C   0  0  0  0  0  0  0  0  0  0  0  0
  1  2  1  0
  2  3  1  0
  3  4  1  0
  4  5  1  0
  5 10  1  0
  5  6  2  0
  6  7  1  0
  7  8  2  0
  8  9  1  0
  9 10  2  0
 10 11  1  0
 11 20  1  0
 11 12  2  0
 12 13  1  0
 13 14  1  0
 14 15  1  0
 15 16  2  0
 15 17  1  0
 13 18  2  0
 18 19  1  0
 19 20  2  0
 20 21  1  0
 21 22  1  0
  7 23  1  0
 23 24  1  0
 23 25  1  0
 23 26  1  0
  3 27  1  0
 27 28  2  0
 27 29  1  0
 29 30  1  0
 30 31  1  0
 31 36  1  0
 31 32  2  0
 32 33  1  0
 33 34  2  0
 34 35  1  0
 35 36  2  0
M  END
>  <SMILES>  (190) 
CCN(Cc1cc(C(F)(F)F)ccc1-c1cc(CC(=O)O)ccc1OC)C(=O)NCc1ccccc1

>  <CollectionName>  (190) 
chembl

>  <LOG PLASMA PROTEIN BINDING (RAT) (% unbound)>  (190) 
0.281033367248

>  <Internal ID>  (190) 


>  <Source>  (190) 
AstraZeneca

$$$$
CHEMBL72
     RDKit          2D

 20 22  0  0  0  0  0  0  0  0999 V2000
    4.5942   -5.0078    0.0000 C   0  0  0  0  0  0  0  0  0  0  0  0
    4.5898   -4.0078    0.0000 N   0  0  0  0  0  0  0  0  0  0  0  0
    3.7216   -3.5116    0.0000 C   0  0  0  0  0  0  0  0  0  0  0  0
    3.7172   -2.5116    0.0000 C   0  0  0  0  0  0  0  0  0  0  0  0
    2.8490   -2.0154    0.0000 C   0  0  0  0  0  0  0  0  0  0  0  0
    2.8446   -1.0154    0.0000 N   0  0  0  0  0  0  0  0  0  0  0  0
    1.9312   -0.5840    0.0000 C   0  0  0  0  0  0  0  0  0  0  0  0
    1.2003   -1.2778    0.0000 C   0  0  0  0  0  0  0  0  0  0  0  0
    0.2313   -0.9837    0.0000 C   0  0  0  0  0  0  0  0  0  0  0  0
    0.0000    0.0000    0.0000 C   0  0  0  0  0  0  0  0  0  0  0  0
    0.7377    0.6898    0.0000 C   0  0  0  0  0  0  0  0  0  0  0  0
    1.6999    0.3997    0.0000 C   0  0  0  0  0  0  0  0  0  0  0  0
    2.3292    1.1930    0.0000 C   0  0  0  0  0  0  0  0  0  0  0  0
    3.3333    1.1944    0.0000 C   0  0  0  0  0  0  0  0  0  0  0  0
    3.9620    0.4062    0.0000 C   0  0  0  0  0  0  0  0  0  0  0  0
    4.9146    0.7195    0.0000 C   0  0  0  0  0  0  0  0  0  0  0  0
    5.6612    0.0428    0.0000 C   0  0  0  0  0  0  0  0  0  0  0  0
    5.4510   -0.9405    0.0000 C   0  0  0  0  0  0  0  0  0  0  0  0
    4.4941   -1.2472    0.0000 C   0  0  0  0  0  0  0  0  0  0  0  0
    3.7517   -0.5772    0.0000 C   0  0  0  0  0  0  0  0  0  0  0  0
  1  2  1  0
  2  3  1  0
  3  4  1  0
  4  5  1  0
  5  6  1  0
  6 20  1  0
  6  7  1  0
  7 12  2  0
  7  8  1  0
  8  9  2  0
  9 10  1  0
 10 11  2  0
 11 12  1  0
 12 13  1  0
 13 14  1  0
 14 15  1  0
 15 20  2  0
 15 16  1  0
 16 17  2  0
 17 18  1  0
 18 19  2  0
 19 20  1  0
M  END
>  <SMILES>  (191) 
CNCCCN1c2ccccc2CCc2ccccc21

>  <CollectionName>  (191) 
chembl

>  <LOG PLASMA PROTEIN BINDING (RAT) (% unbound)>  (191) 
1.27852496474

>  <Internal ID>  (191) 


>  <Source>  (191) 
AstraZeneca

$$$$
CHEMBL500
     RDKit          2D

 18 19  0  0  1  0  0  0  0  0999 V2000
   -1.7329   -5.9964    0.0000 C   0  0  0  0  0  0  0  0  0  0  0  0
   -1.7324   -4.9964    0.0000 C   0  0  0  0  0  0  0  0  0  0  0  0
   -2.5982   -4.4960    0.0000 C   0  0  0  0  0  0  0  0  0  0  0  0
   -0.8661   -4.4969    0.0000 N   0  0  0  0  0  0  0  0  0  0  0  0
   -0.8656   -3.4969    0.0000 C   0  0  0  0  0  0  0  0  0  0  0  0
    0.0007   -2.9973    0.0000 C   0  0  0  0  0  0  0  0  0  0  0  0
    0.8664   -3.4978    0.0000 O   0  0  0  0  0  0  0  0  0  0  0  0
    0.0012   -1.9973    0.0000 C   0  0  0  0  0  0  0  0  0  0  0  0
    0.8675   -1.4978    0.0000 O   0  0  0  0  0  0  0  0  0  0  0  0
    0.8680   -0.4978    0.0000 C   0  0  0  0  0  0  0  0  0  0  0  0
    0.0000    0.0000    0.0000 C   0  0  0  0  0  0  0  0  0  0  0  0
    0.0000    1.0058    0.0000 C   0  0  0  0  0  0  0  0  0  0  0  0
    0.8680    1.5138    0.0000 C   0  0  0  0  0  0  0  0  0  0  0  0
    1.7360    1.0058    0.0000 C   0  0  0  0  0  0  0  0  0  0  0  0
    2.6938    1.3169    0.0000 N   0  0  0  0  0  0  0  0  0  0  0  0
    3.2858    0.5023    0.0000 C   0  0  0  0  0  0  0  0  0  0  0  0
    2.6938   -0.3125    0.0000 C   0  0  0  0  0  0  0  0  0  0  0  0
    1.7360   -0.0012    0.0000 C   0  0  0  0  0  0  0  0  0  0  0  0
  1  2  1  0
  2  3  1  0
  2  4  1  0
  4  5  1  0
  5  6  1  0
  6  7  1  0
  6  8  1  0
  8  9  1  0
  9 10  1  0
 10 18  2  0
 10 11  1  0
 11 12  2  0
 12 13  1  0
 13 14  2  0
 14 18  1  0
 14 15  1  0
 15 16  1  0
 16 17  2  0
 17 18  1  0
M  END
>  <SMILES>  (192) 
CC(C)NCC(O)COc1cccc2[nH]ccc12

>  <CollectionName>  (192) 
chembl

>  <LOG PLASMA PROTEIN BINDING (RAT) (% unbound)>  (192) 
1.76752689941

>  <Internal ID>  (192) 


>  <Source>  (192) 
AstraZeneca

$$$$
CHEMBL502
     RDKit          2D

 28 31  0  0  1  0  0  0  0  0999 V2000
    5.4638   -3.5722    0.0000 C   0  0  0  0  0  0  0  0  0  0  0  0
    4.9626   -2.7068    0.0000 O   0  0  0  0  0  0  0  0  0  0  0  0
    3.9626   -2.7082    0.0000 C   0  0  0  0  0  0  0  0  0  0  0  0
    3.4599   -1.8429    0.0000 C   0  0  0  0  0  0  0  0  0  0  0  0
    2.4599   -1.8389    0.0000 C   0  0  0  0  0  0  0  0  0  0  0  0
    1.7861   -1.0904    0.0000 C   0  0  0  0  0  0  0  0  0  0  0  0
    0.8660   -1.5000    0.0000 C   0  0  0  0  0  0  0  0  0  0  0  0
    0.0000   -1.0000    0.0000 C   0  0  0  0  0  0  0  0  0  0  0  0
    0.0000    0.0000    0.0000 C   0  0  0  0  0  0  0  0  0  0  0  0
   -0.8675    0.4975    0.0000 C   0  0  0  0  0  0  0  0  0  0  0  0
   -0.8675    1.5027    0.0000 C   0  0  0  0  0  0  0  0  0  0  0  0
   -0.0000    2.0104    0.0000 N   0  0  0  0  0  0  0  0  0  0  0  0
   -0.0000    3.0104    0.0000 C   0  0  0  0  0  0  0  0  0  0  0  0
    0.8660    3.5104    0.0000 C   0  0  0  0  0  0  0  0  0  0  0  0
    0.8631    4.5156    0.0000 C   0  0  0  0  0  0  0  0  0  0  0  0
    1.7291    5.0157    0.0000 C   0  0  0  0  0  0  0  0  0  0  0  0
    2.5981    4.5207    0.0000 C   0  0  0  0  0  0  0  0  0  0  0  0
    2.6010    3.5155    0.0000 C   0  0  0  0  0  0  0  0  0  0  0  0
    1.7350    3.0053    0.0000 C   0  0  0  0  0  0  0  0  0  0  0  0
    0.8675    1.5027    0.0000 C   0  0  0  0  0  0  0  0  0  0  0  0
    0.8675    0.4975    0.0000 C   0  0  0  0  0  0  0  0  0  0  0  0
    0.9714   -2.5015    0.0000 C   0  0  0  0  0  0  0  0  0  0  0  0
    0.2281   -3.1705    0.0000 O   0  0  0  0  0  0  0  0  0  0  0  0
    1.9563   -2.7111    0.0000 C   0  0  0  0  0  0  0  0  0  0  0  0
    2.4540   -3.5850    0.0000 C   0  0  0  0  0  0  0  0  0  0  0  0
    3.4597   -3.5792    0.0000 C   0  0  0  0  0  0  0  0  0  0  0  0
    3.9622   -4.4438    0.0000 O   0  0  0  0  0  0  0  0  0  0  0  0
    3.4646   -5.3112    0.0000 C   0  0  0  0  0  0  0  0  0  0  0  0
  1  2  1  0
  2  3  1  0
  3 26  2  0
  3  4  1  0
  4  5  2  0
  5 24  1  0
  5  6  1  0
  6  7  1  0
  7  8  1  0
  8  9  1  0
  9 21  1  0
  9 10  1  0
 10 11  1  0
 11 12  1  0
 12 13  1  0
 13 14  1  0
 14 19  1  0
 14 15  2  0
 15 16  1  0
 16 17  2  0
 17 18  1  0
 18 19  2  0
 12 20  1  0
 20 21  1  0
  7 22  1  0
 22 23  2  0
 22 24  1  0
 24 25  2  0
 25 26  1  0
 26 27  1  0
 27 28  1  0
M  END
>  <SMILES>  (193) 
COc1cc2c(cc1OC)C(=O)C(CC1CCN(Cc3ccccc3)CC1)C2

>  <CollectionName>  (193) 
chembl

>  <LOG PLASMA PROTEIN BINDING (RAT) (% unbound)>  (193) 
1.5301996982

>  <Internal ID>  (193) 


>  <Source>  (193) 
AstraZeneca

$$$$
CHEMBL1020
     RDKit          2D

 19 20  0  0  0  0  0  0  0  0999 V2000
    5.2463   -1.4147    0.0000 C   0  0  0  0  0  0  0  0  0  0  0  0
    4.5012   -0.7478    0.0000 C   0  0  0  0  0  0  0  0  0  0  0  0
    4.7048    0.2313    0.0000 C   0  0  0  0  0  0  0  0  0  0  0  0
    3.9625    0.9015    0.0000 C   0  0  0  0  0  0  0  0  0  0  0  0
    3.0070    0.5894    0.0000 C   0  0  0  0  0  0  0  0  0  0  0  0
    2.7937   -0.3929    0.0000 C   0  0  0  0  0  0  0  0  0  0  0  0
    3.5456   -1.0599    0.0000 C   0  0  0  0  0  0  0  0  0  0  0  0
    2.2648    1.2596    0.0000 C   0  0  0  0  0  0  0  0  0  0  0  0
    2.4741    2.2374    0.0000 O   0  0  0  0  0  0  0  0  0  0  0  0
    1.3133    0.9519    0.0000 C   0  0  0  0  0  0  0  0  0  0  0  0
    1.0015    0.0000    0.0000 C   0  0  0  0  0  0  0  0  0  0  0  0
    0.0000    0.0000    0.0000 C   0  0  0  0  0  0  0  0  0  0  0  0
   -0.3065    0.9519    0.0000 C   0  0  0  0  0  0  0  0  0  0  0  0
   -1.2577    1.2605    0.0000 C   0  0  0  0  0  0  0  0  0  0  0  0
   -2.0005    0.5910    0.0000 C   0  0  0  0  0  0  0  0  0  0  0  0
   -1.7922   -0.3870    0.0000 O   0  0  0  0  0  0  0  0  0  0  0  0
   -2.9517    0.8996    0.0000 O   0  0  0  0  0  0  0  0  0  0  0  0
    0.5008    1.5428    0.0000 N   0  0  0  0  0  0  0  0  0  0  0  0
    0.4993    2.5428    0.0000 C   0  0  0  0  0  0  0  0  0  0  0  0
  1  2  1  0
  2  7  2  0
  2  3  1  0
  3  4  2  0
  4  5  1  0
  5  6  2  0
  6  7  1  0
  5  8  1  0
  8  9  2  0
  8 10  1  0
 10 18  1  0
 10 11  2  0
 11 12  1  0
 12 13  2  0
 13 14  1  0
 14 15  1  0
 15 16  2  0
 15 17  1  0
 13 18  1  0
 18 19  1  0
M  END
>  <SMILES>  (194) 
Cc1ccc(C(=O)c2ccc(CC(=O)O)n2C)cc1

>  <CollectionName>  (194) 
chembl

>  <LOG PLASMA PROTEIN BINDING (RAT) (% unbound)>  (194) 
0.457881896734

>  <Internal ID>  (194) 


>  <Source>  (194) 
AstraZeneca

$$$$
CHEMBL384467
     RDKit          2D

 28 31  0  0  1  0  0  0  0  0999 V2000
    6.9606    3.0130    0.0000 C   0  0  0  0  0  0  0  0  0  0  0  0
    6.0928    2.5162    0.0000 C   0  0  0  0  0  0  0  0  0  0  0  0
    6.0915    1.5061    0.0000 C   0  0  0  0  0  0  0  0  0  0  0  0
    4.3477    1.5084    0.0000 C   0  0  0  0  0  0  0  0  0  0  0  0
    3.4759    1.0071    0.0000 C   0  0  0  0  0  0  0  0  0  0  0  0
    3.4748    0.0023    0.0000 C   0  0  0  0  0  0  0  0  0  0  0  0
    2.6037   -0.4989    0.0000 C   0  0  0  0  0  0  0  0  0  0  0  0
    1.7371   -0.0000    0.0000 C   0  0  0  0  0  0  0  0  0  0  0  0
    0.8679   -0.4977    0.0000 C   0  0  0  0  0  0  0  0  0  0  0  0
    0.0000    0.0000    0.0000 C   0  0  0  0  0  0  0  0  0  0  0  0
   -0.8653   -0.5013    0.0000 O   0  0  0  0  0  0  0  0  0  0  0  0
    0.0000    1.0056    0.0000 C   0  0  0  0  0  0  0  0  0  0  0  0
    0.8679    1.5135    0.0000 C   0  0  0  0  0  0  0  0  0  0  0  0
    1.7358    1.0056    0.0000 C   0  0  0  0  0  0  0  0  0  0  0  0
    1.7357    2.0056    0.0000 C   0  0  0  0  0  0  0  0  0  0  0  0
    2.6012    1.5123    0.0000 C   0  0  0  0  0  0  0  0  0  0  0  0
    2.6042    0.5123    0.0000 F   0  0  0  0  0  0  0  0  0  0  0  0
    2.5967    2.5196    0.0000 C   0  0  0  0  0  0  0  0  0  0  0  0
    1.7301    3.0186    0.0000 O   0  0  0  0  0  0  0  0  0  0  0  0
    3.4743    3.0237    0.0000 C   0  0  0  0  0  0  0  0  0  0  0  0
    4.3490    2.5184    0.0000 C   0  0  0  0  0  0  0  0  0  0  0  0
    5.2163    2.0206    0.0000 C   0  0  0  0  0  0  0  0  0  0  0  0
    5.2187    3.0279    0.0000 C   0  0  0  0  0  0  0  0  0  0  0  0
    5.8629    3.7927    0.0000 O   0  0  0  0  0  0  0  0  0  0  0  0
    4.0908    4.3660    0.0000 C   0  0  0  0  0  0  0  0  0  0  0  0
    3.1064    4.1901    0.0000 O   0  0  0  0  0  0  0  0  0  0  0  0
    4.4308    5.3064    0.0000 C   0  0  0  0  0  0  0  0  0  0  0  0
    3.7863    6.0710    0.0000 O   0  0  0  0  0  0  0  0  0  0  0  0
  2  1  1  6
  2 23  1  0
  2  3  1  0
  4  3  1  1
  4 21  1  0
  4  5  1  0
  5 16  1  0
  5  6  1  6
  6  7  1  0
  7  8  1  0
  8 14  1  0
  8  9  2  0
  9 10  1  0
 10 11  2  0
 10 12  1  0
 12 13  2  0
 13 14  1  0
 14 15  1  1
 14 16  1  0
 16 17  1  6
 16 18  1  0
 18 19  1  1
 18 20  1  0
 20 21  1  0
 21 22  1  1
 21 23  1  0
 23 24  1  6
 23 25  1  0
 25 26  2  0
 25 27  1  0
 27 28  1  0
M  END
>  <SMILES>  (195) 
C[C@@H]1C[C@H]2[C@@H]3CCC4=CC(=O)C=C[C@]4(C)[C@@]3(F)[C@@H](O)C[C@]2(C)[C@@]1(O)C(=O)CO

>  <CollectionName>  (195) 
chembl

>  <LOG PLASMA PROTEIN BINDING (RAT) (% unbound)>  (195) 
1.10140335056

>  <Internal ID>  (195) 


>  <Source>  (195) 
AstraZeneca

$$$$
CHEMBL71
     RDKit          2D

 21 23  0  0  0  0  0  0  0  0999 V2000
    4.3226    4.5113    0.0000 C   0  0  0  0  0  0  0  0  0  0  0  0
    4.3252    3.5113    0.0000 N   0  0  0  0  0  0  0  0  0  0  0  0
    5.1926    3.0136    0.0000 C   0  0  0  0  0  0  0  0  0  0  0  0
    3.4605    3.0090    0.0000 C   0  0  0  0  0  0  0  0  0  0  0  0
    3.4632    2.0090    0.0000 C   0  0  0  0  0  0  0  0  0  0  0  0
    2.5985    1.5067    0.0000 C   0  0  0  0  0  0  0  0  0  0  0  0
    2.6012    0.5067    0.0000 N   0  0  0  0  0  0  0  0  0  0  0  0
    1.7358   -0.0000    0.0000 C   0  0  0  0  0  0  0  0  0  0  0  0
    0.8679    0.5079    0.0000 C   0  0  0  0  0  0  0  0  0  0  0  0
    0.0000    0.0000    0.0000 C   0  0  0  0  0  0  0  0  0  0  0  0
    0.0000   -1.0057    0.0000 C   0  0  0  0  0  0  0  0  0  0  0  0
    0.8679   -1.5033    0.0000 C   0  0  0  0  0  0  0  0  0  0  0  0
    1.7371   -1.0057    0.0000 C   0  0  0  0  0  0  0  0  0  0  0  0
    2.6038   -1.5046    0.0000 S   0  0  0  0  0  0  0  0  0  0  0  0
    3.4738   -1.0059    0.0000 C   0  0  0  0  0  0  0  0  0  0  0  0
    4.3422   -1.5068    0.0000 C   0  0  0  0  0  0  0  0  0  0  0  0
    5.2158   -1.0053    0.0000 C   0  0  0  0  0  0  0  0  0  0  0  0
    5.2154    0.0028    0.0000 C   0  0  0  0  0  0  0  0  0  0  0  0
    6.0818    0.5022    0.0000 Cl  0  0  0  0  0  0  0  0  0  0  0  0
    4.3415    0.5094    0.0000 C   0  0  0  0  0  0  0  0  0  0  0  0
    3.4735    0.0022    0.0000 C   0  0  0  0  0  0  0  0  0  0  0  0
  1  2  1  0
  2  3  1  0
  2  4  1  0
  4  5  1  0
  5  6  1  0
  6  7  1  0
  7 21  1  0
  7  8  1  0
  8 13  2  0
  8  9  1  0
  9 10  2  0
 10 11  1  0
 11 12  2  0
 12 13  1  0
 13 14  1  0
 14 15  1  0
 15 21  2  0
 15 16  1  0
 16 17  2  0
 17 18  1  0
 18 19  1  0
 18 20  2  0
 20 21  1  0
M  END
>  <SMILES>  (196) 
CN(C)CCCN1c2ccccc2Sc2ccc(Cl)cc21

>  <CollectionName>  (196) 
chembl

>  <LOG PLASMA PROTEIN BINDING (RAT) (% unbound)>  (196) 
0.232996110392

>  <Internal ID>  (196) 


>  <Source>  (196) 
AstraZeneca

$$$$
CHEMBL490
     RDKit          2D

 24 27  0  0  1  0  0  0  0  0999 V2000
   -0.0043   -4.0051    0.0000 F   0  0  0  0  0  0  0  0  0  0  0  0
    0.0001   -3.0052    0.0000 C   0  0  0  0  0  0  0  0  0  0  0  0
   -0.8697   -2.5013    0.0000 C   0  0  0  0  0  0  0  0  0  0  0  0
   -0.8653   -1.5013    0.0000 C   0  0  0  0  0  0  0  0  0  0  0  0
    0.0000   -1.0000    0.0000 C   0  0  0  0  0  0  0  0  0  0  0  0
    0.8698   -1.5039    0.0000 C   0  0  0  0  0  0  0  0  0  0  0  0
    0.8743   -2.5090    0.0000 C   0  0  0  0  0  0  0  0  0  0  0  0
    0.0000    0.0000    0.0000 C   0  0  0  0  0  0  0  0  0  0  0  0
   -0.8675    0.4975    0.0000 C   0  0  0  0  0  0  0  0  0  0  0  0
   -0.8675    1.5027    0.0000 C   0  0  0  0  0  0  0  0  0  0  0  0
   -0.0000    2.0104    0.0000 N   0  0  0  0  0  0  0  0  0  0  0  0
    0.8675    1.5027    0.0000 C   0  0  0  0  0  0  0  0  0  0  0  0
    0.8675    0.4975    0.0000 C   0  0  0  0  0  0  0  0  0  0  0  0
    1.7328   -0.0038    0.0000 C   0  0  0  0  0  0  0  0  0  0  0  0
    2.5995    0.4950    0.0000 O   0  0  0  0  0  0  0  0  0  0  0  0
    3.4648   -0.0063    0.0000 C   0  0  0  0  0  0  0  0  0  0  0  0
    3.4605   -1.0121    0.0000 C   0  0  0  0  0  0  0  0  0  0  0  0
    4.3263   -1.5137    0.0000 C   0  0  0  0  0  0  0  0  0  0  0  0
    5.1964   -1.0209    0.0000 C   0  0  0  0  0  0  0  0  0  0  0  0
    6.1529   -1.3364    0.0000 O   0  0  0  0  0  0  0  0  0  0  0  0
    6.7484   -0.5242    0.0000 C   0  0  0  0  0  0  0  0  0  0  0  0
    6.1600    0.2930    0.0000 O   0  0  0  0  0  0  0  0  0  0  0  0
    5.2008   -0.0138    0.0000 C   0  0  0  0  0  0  0  0  0  0  0  0
    4.3351    0.4978    0.0000 C   0  0  0  0  0  0  0  0  0  0  0  0
  1  2  1  0
  2  7  2  0
  2  3  1  0
  3  4  2  0
  4  5  1  0
  5  6  2  0
  6  7  1  0
  8  5  1  6
  8 13  1  0
  8  9  1  0
  9 10  1  0
 10 11  1  0
 11 12  1  0
 12 13  1  0
 13 14  1  1
 14 15  1  0
 15 16  1  0
 16 24  1  0
 16 17  2  0
 17 18  1  0
 18 19  2  0
 19 23  1  0
 19 20  1  0
 20 21  1  0
 21 22  1  0
 22 23  1  0
 23 24  2  0
M  END
>  <SMILES>  (197) 
Fc1ccc([C@@H]2CCNC[C@H]2COc2ccc3c(c2)OCO3)cc1

>  <CollectionName>  (197) 
chembl

>  <LOG PLASMA PROTEIN BINDING (RAT) (% unbound)>  (197) 
0.725911632295

>  <Internal ID>  (197) 


>  <Source>  (197) 
AstraZeneca

$$$$
CHEMBL372205
     RDKit          2D

 36 40  0  0  1  0  0  0  0  0999 V2000
    1.7291    0.0002    0.0000 C   0  0  0  0  0  0  0  0  0  0  0  0
    2.5966    0.4976    0.0000 C   0  0  0  0  0  0  0  0  0  0  0  0
    2.5995    1.4976    0.0000 C   0  0  0  0  0  0  0  0  0  0  0  0
    1.7350    2.0001    0.0000 N   0  0  0  0  0  0  0  0  0  0  0  0
    1.7379    3.0001    0.0000 C   0  0  0  0  0  0  0  0  0  0  0  0
    0.8734    3.5027    0.0000 O   0  0  0  0  0  0  0  0  0  0  0  0
    2.6054    3.4976    0.0000 C   0  0  0  0  0  0  0  0  0  0  0  0
    2.6054    4.5028    0.0000 C   0  0  0  0  0  0  0  0  0  0  0  0
    3.4729    5.0003    0.0000 C   0  0  0  0  0  0  0  0  0  0  0  0
    4.3404    4.5028    0.0000 C   0  0  0  0  0  0  0  0  0  0  0  0
    4.3404    3.4976    0.0000 C   0  0  0  0  0  0  0  0  0  0  0  0
    3.4729    2.9899    0.0000 C   0  0  0  0  0  0  0  0  0  0  0  0
    5.2057    5.0040    0.0000 C   0  0  0  0  0  0  0  0  0  0  0  0
    6.0710    5.5053    0.0000 N   0  0  0  0  0  0  0  0  0  0  0  0
    0.8675    1.5027    0.0000 C   0  0  0  0  0  0  0  0  0  0  0  0
    0.8675    0.4975    0.0000 C   0  0  0  0  0  0  0  0  0  0  0  0
    0.0000    0.0000    0.0000 C   0  0  0  0  0  0  0  0  0  0  0  0
   -0.8675    0.4975    0.0000 C   0  0  0  0  0  0  0  0  0  0  0  0
   -0.8675    1.5027    0.0000 C   0  0  0  0  0  0  0  0  0  0  0  0
   -0.0000    2.0104    0.0000 N   0  0  0  0  0  0  0  0  0  0  0  0
    3.4611   -0.0050    0.0000 N   0  0  0  0  0  0  0  0  0  0  0  0
    3.4641   -1.0101    0.0000 C   0  0  0  0  0  0  0  0  0  0  0  0
    4.3331   -1.5153    0.0000 C   0  0  0  0  0  0  0  0  0  0  0  0
    5.1992   -1.0153    0.0000 N   0  0  0  0  0  0  0  0  0  0  0  0
    5.2051   -0.0153    0.0000 C   0  0  0  0  0  0  0  0  0  0  0  0
    4.3360    0.4899    0.0000 C   0  0  0  0  0  0  0  0  0  0  0  0
    6.0638   -1.5178    0.0000 C   0  0  0  0  0  0  0  0  0  0  0  0
    6.0666   -2.5234    0.0000 C   0  0  0  0  0  0  0  0  0  0  0  0
    6.9361   -3.0288    0.0000 C   0  0  0  0  0  0  0  0  0  0  0  0
    7.8026   -2.5286    0.0000 C   0  0  0  0  0  0  0  0  0  0  0  0
    7.8091   -1.5270    0.0000 C   0  0  0  0  0  0  0  0  0  0  0  0
    8.6760   -1.0284    0.0000 O   0  0  0  0  0  0  0  0  0  0  0  0
    8.6805   -0.0236    0.0000 C   0  0  0  0  0  0  0  0  0  0  0  0
    7.8103    0.4807    0.0000 C   0  0  0  0  0  0  0  0  0  0  0  0
    6.9358   -0.0199    0.0000 O   0  0  0  0  0  0  0  0  0  0  0  0
    6.9390   -1.0227    0.0000 C   0  0  0  0  0  0  0  0  0  0  0  0
  2  1  1  6
  2  3  1  0
  3  4  1  0
  4  5  1  0
  5  6  2  0
  5  7  1  0
  7 12  1  0
  7  8  2  0
  8  9  1  0
  9 10  2  0
 10 11  1  0
 11 12  2  0
 10 13  1  0
 13 14  3  0
  4 15  1  0
 15 20  1  0
 15 16  2  0
 16 17  1  0
 17 18  2  0
 18 19  1  0
 19 20  2  0
  2 21  1  0
 21 26  1  0
 21 22  1  0
 22 23  1  0
 23 24  1  0
 24 25  1  0
 25 26  1  0
 24 27  1  0
 27 36  1  0
 27 28  2  0
 28 29  1  0
 29 30  2  0
 30 31  1  0
 31 36  2  0
 31 32  1  0
 32 33  1  0
 33 34  1  0
 34 35  1  0
 35 36  1  0
M  END
>  <SMILES>  (198) 
C[C@H](CN(C(=O)c1ccc(C#N)cc1)c1ccccn1)N1CCN(c2cccc3c2OCCO3)CC1

>  <CollectionName>  (198) 
chembl

>  <LOG PLASMA PROTEIN BINDING (RAT) (% unbound)>  (198) 
1.25406445291

>  <Internal ID>  (198) 


>  <Source>  (198) 
AstraZeneca

$$$$
CHEMBL945
     RDKit          2D

 15 15  0  0  0  0  0  0  0  0999 V2000
   -3.4641    0.9950    0.0000 N   0  0  0  0  0  0  0  0  0  0  0  0
   -2.5995    1.4975    0.0000 C   0  0  0  0  0  0  0  0  0  0  0  0
   -2.6025    2.4975    0.0000 N   0  0  0  0  0  0  0  0  0  0  0  0
   -1.7320    1.0001    0.0000 N   0  0  0  0  0  0  0  0  0  0  0  0
   -0.8675    1.5026    0.0000 C   0  0  0  0  0  0  0  0  0  0  0  0
   -0.8704    2.5026    0.0000 O   0  0  0  0  0  0  0  0  0  0  0  0
    0.0000    1.0052    0.0000 C   0  0  0  0  0  0  0  0  0  0  0  0
    0.8675    1.5129    0.0000 N   0  0  0  0  0  0  0  0  0  0  0  0
    1.7350    1.0052    0.0000 C   0  0  0  0  0  0  0  0  0  0  0  0
    2.6025    1.5026    0.0000 Cl  0  0  0  0  0  0  0  0  0  0  0  0
    1.7350    0.0000    0.0000 C   0  0  0  0  0  0  0  0  0  0  0  0
    2.6003   -0.5013    0.0000 N   0  0  0  0  0  0  0  0  0  0  0  0
    0.8675   -0.4975    0.0000 N   0  0  0  0  0  0  0  0  0  0  0  0
    0.0000    0.0000    0.0000 C   0  0  0  0  0  0  0  0  0  0  0  0
   -0.8653   -0.5013    0.0000 N   0  0  0  0  0  0  0  0  0  0  0  0
  1  2  1  0
  2  3  2  3
  2  4  1  0
  4  5  1  0
  5  6  2  0
  5  7  1  0
  7 14  2  0
  7  8  1  0
  8  9  2  0
  9 10  1  0
  9 11  1  0
 11 12  1  0
 11 13  2  0
 13 14  1  0
 14 15  1  0
M  END
>  <SMILES>  (199) 
N=C(N)NC(=O)c1nc(Cl)c(N)nc1N

>  <CollectionName>  (199) 
chembl

>  <LOG PLASMA PROTEIN BINDING (RAT) (% unbound)>  (199) 
1.83651399889

>  <Internal ID>  (199) 


>  <Source>  (199) 
AstraZeneca

$$$$
CHEMBL1271162
     RDKit          2D

 34 38  0  0  1  0  0  0  0  0999 V2000
   -8.6930    5.9905    0.0000 C   0  0  0  0  0  0  0  0  0  0  0  0
   -7.8255    5.4931    0.0000 N   0  0  0  0  0  0  0  0  0  0  0  0
   -7.8166    4.4880    0.0000 C   0  0  0  0  0  0  0  0  0  0  0  0
   -6.9446    3.9880    0.0000 C   0  0  0  0  0  0  0  0  0  0  0  0
   -6.0815    4.4931    0.0000 C   0  0  0  0  0  0  0  0  0  0  0  0
   -6.0816    5.4931    0.0000 C   0  0  0  0  0  0  0  0  0  0  0  0
   -6.9536    5.9931    0.0000 C   0  0  0  0  0  0  0  0  0  0  0  0
   -5.2140    3.9956    0.0000 N   0  0  0  0  0  0  0  0  0  0  0  0
   -4.3509    4.5007    0.0000 C   0  0  0  0  0  0  0  0  0  0  0  0
   -3.4789    4.0007    0.0000 C   0  0  0  0  0  0  0  0  0  0  0  0
   -3.4700    2.9956    0.0000 N   0  0  0  0  0  0  0  0  0  0  0  0
   -4.3420    2.4956    0.0000 C   0  0  0  0  0  0  0  0  0  0  0  0
   -5.2140    2.9956    0.0000 C   0  0  0  0  0  0  0  0  0  0  0  0
   -2.6025    2.4981    0.0000 C   0  0  0  0  0  0  0  0  0  0  0  0
   -1.7380    3.0007    0.0000 O   0  0  0  0  0  0  0  0  0  0  0  0
   -2.5995    1.4981    0.0000 C   0  0  0  0  0  0  0  0  0  0  0  0
   -1.7320    1.0007    0.0000 N   0  0  0  0  0  0  0  0  0  0  0  0
   -0.8675    1.5032    0.0000 C   0  0  0  0  0  0  0  0  0  0  0  0
   -0.8705    2.5032    0.0000 O   0  0  0  0  0  0  0  0  0  0  0  0
   -0.0000    1.0058    0.0000 C   0  0  0  0  0  0  0  0  0  0  0  0
    0.0000    0.0000    0.0000 C   0  0  0  0  0  0  0  0  0  0  0  0
    0.8680   -0.4978    0.0000 C   0  0  0  0  0  0  0  0  0  0  0  0
    1.7360   -0.0012    0.0000 C   0  0  0  0  0  0  0  0  0  0  0  0
    2.6938   -0.3125    0.0000 C   0  0  0  0  0  0  0  0  0  0  0  0
    3.2858    0.5023    0.0000 C   0  0  0  0  0  0  0  0  0  0  0  0
    2.6938    1.3169    0.0000 N   0  0  0  0  0  0  0  0  0  0  0  0
    1.7360    1.0058    0.0000 C   0  0  0  0  0  0  0  0  0  0  0  0
    0.8680    1.5138    0.0000 C   0  0  0  0  0  0  0  0  0  0  0  0
   -3.4641    0.9956    0.0000 C   0  0  0  0  0  0  0  0  0  0  0  0
   -3.4582   -0.0096    0.0000 C   0  0  0  0  0  0  0  0  0  0  0  0
   -4.3227   -0.5122    0.0000 C   0  0  0  0  0  0  0  0  0  0  0  0
   -5.1931   -0.0199    0.0000 C   0  0  0  0  0  0  0  0  0  0  0  0
   -5.1991    0.9853    0.0000 C   0  0  0  0  0  0  0  0  0  0  0  0
   -4.3346    1.4981    0.0000 C   0  0  0  0  0  0  0  0  0  0  0  0
  1  2  1  0
  2  7  1  0
  2  3  1  0
  3  4  1  0
  4  5  1  0
  5  6  1  0
  6  7  1  0
  5  8  1  0
  8 13  1  0
  8  9  1  0
  9 10  1  0
 10 11  1  0
 11 12  1  0
 12 13  1  0
 11 14  1  0
 14 15  2  0
 16 14  1  0
 16 17  1  6
 17 18  1  0
 18 19  2  0
 18 20  1  0
 20 28  1  0
 20 21  2  0
 21 22  1  0
 22 23  2  0
 23 27  1  0
 23 24  1  0
 24 25  2  0
 25 26  1  0
 26 27  1  0
 27 28  2  0
 16 29  1  0
 29 34  1  0
 29 30  2  0
 30 31  1  0
 31 32  2  0
 32 33  1  0
 33 34  2  0
M  END
>  <SMILES>  (200) 
CN1CCC(N2CCN(C(=O)[C@H](NC(=O)c3ccc4cc[nH]c4c3)c3ccccc3)CC2)CC1

>  <CollectionName>  (200) 
chembl

>  <LOG PLASMA PROTEIN BINDING (RAT) (% unbound)>  (200) 
1.73255457985

>  <Internal ID>  (200) 


>  <Source>  (200) 
AstraZeneca

$$$$
CHEMBL1450473
     RDKit          2D

 28 30  0  0  0  0  0  0  0  0999 V2000
   -8.1530    0.8104    0.0000 C   0  0  0  0  0  0  0  0  0  0  0  0
   -7.2005    0.5060    0.0000 C   0  0  0  0  0  0  0  0  0  0  0  0
   -6.9864   -0.4709    0.0000 C   0  0  0  0  0  0  0  0  0  0  0  0
   -6.0352   -0.7795    0.0000 C   0  0  0  0  0  0  0  0  0  0  0  0
   -5.2905   -0.1044    0.0000 C   0  0  0  0  0  0  0  0  0  0  0  0
   -5.4970    0.8793    0.0000 C   0  0  0  0  0  0  0  0  0  0  0  0
   -6.4557    1.1811    0.0000 C   0  0  0  0  0  0  0  0  0  0  0  0
   -4.3393   -0.4130    0.0000 S   0  0  0  0  0  0  0  0  0  0  0  0
   -4.0307    0.5382    0.0000 O   0  0  0  0  0  0  0  0  0  0  0  0
   -4.6479   -1.3642    0.0000 O   0  0  0  0  0  0  0  0  0  0  0  0
   -3.3881   -0.7216    0.0000 N   0  0  0  0  0  0  0  0  0  0  0  0
   -2.6452   -0.0522    0.0000 C   0  0  0  0  0  0  0  0  0  0  0  0
   -1.6941   -0.3608    0.0000 C   0  0  0  0  0  0  0  0  0  0  0  0
   -0.9512    0.3086    0.0000 S   0  0  0  0  0  0  0  0  0  0  0  0
    0.0000    0.0000    0.0000 C   0  0  0  0  0  0  0  0  0  0  0  0
    0.3065   -0.9518    0.0000 N   0  0  0  0  0  0  0  0  0  0  0  0
    1.3080   -0.9518    0.0000 N   0  0  0  0  0  0  0  0  0  0  0  0
    1.6198    0.0000    0.0000 N   0  0  0  0  0  0  0  0  0  0  0  0
    0.8073    0.5908    0.0000 N   0  0  0  0  0  0  0  0  0  0  0  0
    0.8058    1.5908    0.0000 C   0  0  0  0  0  0  0  0  0  0  0  0
   -0.0670    2.0895    0.0000 C   0  0  0  0  0  0  0  0  0  0  0  0
   -0.0686    3.0895    0.0000 C   0  0  0  0  0  0  0  0  0  0  0  0
    0.7938    3.5959    0.0000 C   0  0  0  0  0  0  0  0  0  0  0  0
    1.6665    3.0972    0.0000 C   0  0  0  0  0  0  0  0  0  0  0  0
    1.6770    2.0921    0.0000 C   0  0  0  0  0  0  0  0  0  0  0  0
    0.7878    4.5959    0.0000 C   0  0  0  0  0  0  0  0  0  0  0  0
    1.6509    5.1010    0.0000 O   0  0  0  0  0  0  0  0  0  0  0  0
   -0.0811    5.0908    0.0000 N   0  0  0  0  0  0  0  0  0  0  0  0
  1  2  1  0
  2  7  2  0
  2  3  1  0
  3  4  2  0
  4  5  1  0
  5  6  2  0
  6  7  1  0
  5  8  1  0
  8  9  2  0
  8 10  2  0
  8 11  1  0
 11 12  1  0
 12 13  1  0
 13 14  1  0
 14 15  1  0
 15 19  1  0
 15 16  2  0
 16 17  1  0
 17 18  2  0
 18 19  1  0
 19 20  1  0
 20 25  1  0
 20 21  2  0
 21 22  1  0
 22 23  2  0
 23 24  1  0
 24 25  2  0
 23 26  1  0
 26 27  2  0
 26 28  1  0
M  END
>  <SMILES>  (201) 
Cc1ccc(S(=O)(=O)NCCSc2nnnn2-c2ccc(C(N)=O)cc2)cc1

>  <CollectionName>  (201) 
chembl

>  <LOG PLASMA PROTEIN BINDING (RAT) (% unbound)>  (201) 
1.27852496474

>  <Internal ID>  (201) 


>  <Source>  (201) 
AstraZeneca

$$$$
CHEMBL320876
     RDKit          2D

 42 48  0  0  1  0  0  0  0  0999 V2000
   -6.7634   -3.4830    0.0000 C   0  0  0  0  0  0  0  0  0  0  0  0
   -5.8983   -3.9846    0.0000 O   0  0  0  0  0  0  0  0  0  0  0  0
   -5.0313   -3.4862    0.0000 C   0  0  0  0  0  0  0  0  0  0  0  0
   -5.0324   -2.4862    0.0000 C   0  0  0  0  0  0  0  0  0  0  0  0
   -4.1609   -1.9852    0.0000 C   0  0  0  0  0  0  0  0  0  0  0  0
   -3.2884   -2.4842    0.0000 C   0  0  0  0  0  0  0  0  0  0  0  0
   -3.2962   -3.4894    0.0000 C   0  0  0  0  0  0  0  0  0  0  0  0
   -2.4326   -3.9935    0.0000 O   0  0  0  0  0  0  0  0  0  0  0  0
   -2.4374   -4.9935    0.0000 C   0  0  0  0  0  0  0  0  0  0  0  0
   -4.1677   -3.9903    0.0000 C   0  0  0  0  0  0  0  0  0  0  0  0
   -4.1710   -4.9903    0.0000 O   0  0  0  0  0  0  0  0  0  0  0  0
   -4.1620   -0.9852    0.0000 C   0  0  0  0  0  0  0  0  0  0  0  0
   -5.0327   -0.4858    0.0000 C   0  0  0  0  0  0  0  0  0  0  0  0
   -5.0327    0.5285    0.0000 C   0  0  0  0  0  0  0  0  0  0  0  0
   -5.9974    0.8422    0.0000 C   0  0  0  0  0  0  0  0  0  0  0  0
   -6.5938    0.0214    0.0000 O   0  0  0  0  0  0  0  0  0  0  0  0
   -5.9975   -0.7992    0.0000 C   0  0  0  0  0  0  0  0  0  0  0  0
   -6.3065   -1.7503    0.0000 O   0  0  0  0  0  0  0  0  0  0  0  0
   -4.1620    1.0324    0.0000 C   0  0  0  0  0  0  0  0  0  0  0  0
   -4.1596    2.0324    0.0000 O   0  0  0  0  0  0  0  0  0  0  0  0
   -5.0244    2.5345    0.0000 C   0  0  0  0  0  0  0  0  0  0  0  0
   -5.8966    2.0353    0.0000 O   0  0  0  0  0  0  0  0  0  0  0  0
   -6.7621    2.5362    0.0000 C   0  0  0  0  0  0  0  0  0  0  0  0
   -7.6325    2.0404    0.0000 C   0  0  0  0  0  0  0  0  0  0  0  0
   -8.4992    2.5401    0.0000 O   0  0  0  0  0  0  0  0  0  0  0  0
   -8.4970    3.5458    0.0000 C   0  0  0  0  0  0  0  0  0  0  0  0
   -9.3633    4.0453    0.0000 C   0  0  0  0  0  0  0  0  0  0  0  0
   -7.6279    4.0517    0.0000 O   0  0  0  0  0  0  0  0  0  0  0  0
   -6.7612    3.5419    0.0000 C   0  0  0  0  0  0  0  0  0  0  0  0
   -5.8946    4.0466    0.0000 C   0  0  0  0  0  0  0  0  0  0  0  0
   -5.8950    5.0466    0.0000 O   0  0  0  0  0  0  0  0  0  0  0  0
   -5.0235    3.5402    0.0000 C   0  0  0  0  0  0  0  0  0  0  0  0
   -4.1564    4.0384    0.0000 O   0  0  0  0  0  0  0  0  0  0  0  0
   -3.2914    0.5230    0.0000 C   0  0  0  0  0  0  0  0  0  0  0  0
   -2.4204    1.0264    0.0000 C   0  0  0  0  0  0  0  0  0  0  0  0
   -1.5481    0.5155    0.0000 C   0  0  0  0  0  0  0  0  0  0  0  0
   -0.5868    0.8200    0.0000 O   0  0  0  0  0  0  0  0  0  0  0  0
    0.0000    0.0000    0.0000 C   0  0  0  0  0  0  0  0  0  0  0  0
   -0.5987   -0.8115    0.0000 O   0  0  0  0  0  0  0  0  0  0  0  0
   -1.5555   -0.4928    0.0000 C   0  0  0  0  0  0  0  0  0  0  0  0
   -2.4289   -0.9912    0.0000 C   0  0  0  0  0  0  0  0  0  0  0  0
   -3.2957   -0.4858    0.0000 C   0  0  0  0  0  0  0  0  0  0  0  0
  1  2  1  0
  2  3  1  0
  3 10  2  0
  3  4  1  0
  4  5  2  0
  5  6  1  0
  6  7  2  0
  7  8  1  0
  8  9  1  0
  7 10  1  0
 10 11  1  0
 12  5  1  1
 12 42  1  0
 12 13  1  0
 13 17  1  1
 13 14  1  0
 14 15  1  0
 15 16  1  0
 16 17  1  0
 17 18  2  0
 14 19  1  0
 19 20  1  0
 21 20  1  6
 21 32  1  0
 21 22  1  0
 22 23  1  0
 23 29  1  0
 23 24  1  6
 24 25  1  0
 25 26  1  0
 26 27  1  1
 26 28  1  0
 29 28  1  1
 29 30  1  0
 30 31  1  6
 30 32  1  0
 32 33  1  1
 19 34  1  0
 34 42  2  0
 34 35  1  0
 35 36  2  0
 36 40  1  0
 36 37  1  0
 37 38  1  0
 38 39  1  0
 39 40  1  0
 40 41  2  0
 41 42  1  0
M  END
>  <SMILES>  (202) 
COc1cc([C@@H]2c3cc4c(cc3C(O[C@@H]3O[C@@H]5CO[C@@H](C)O[C@H]5[C@H](O)[C@H]3O)C3COC(=O)[C@@H]32)OCO4)cc(OC)c1O

>  <CollectionName>  (202) 
chembl

>  <LOG PLASMA PROTEIN BINDING (RAT) (% unbound)>  (202) 
1.32654066852

>  <Internal ID>  (202) 


>  <Source>  (202) 
AstraZeneca

$$$$
CHEMBL323776
     RDKit          2D

 31 33  0  0  0  0  0  0  0  0999 V2000
    4.3321    5.5138    0.0000 C   0  0  0  0  0  0  0  0  0  0  0  0
    3.4661    6.0138    0.0000 N   0  0  0  0  0  0  0  0  0  0  0  0
    2.6001    5.5138    0.0000 C   0  0  0  0  0  0  0  0  0  0  0  0
    2.6001    4.5138    0.0000 C   0  0  0  0  0  0  0  0  0  0  0  0
    1.7340    4.0138    0.0000 N   0  0  0  0  0  0  0  0  0  0  0  0
    1.7340    3.0138    0.0000 C   0  0  0  0  0  0  0  0  0  0  0  0
    0.8680    2.5138    0.0000 C   0  0  0  0  0  0  0  0  0  0  0  0
    0.8680    1.5138    0.0000 C   0  0  0  0  0  0  0  0  0  0  0  0
    0.0000    1.0058    0.0000 C   0  0  0  0  0  0  0  0  0  0  0  0
    0.0000    0.0000    0.0000 C   0  0  0  0  0  0  0  0  0  0  0  0
    0.8680   -0.4978    0.0000 C   0  0  0  0  0  0  0  0  0  0  0  0
    0.8675   -1.4978    0.0000 O   0  0  0  0  0  0  0  0  0  0  0  0
    1.7360   -0.0012    0.0000 C   0  0  0  0  0  0  0  0  0  0  0  0
    2.6938   -0.3125    0.0000 N   0  0  0  0  0  0  0  0  0  0  0  0
    3.2858    0.5023    0.0000 C   0  0  0  0  0  0  0  0  0  0  0  0
    4.2858    0.5024    0.0000 O   0  0  0  0  0  0  0  0  0  0  0  0
    2.6938    1.3169    0.0000 S   0  0  0  0  0  0  0  0  0  0  0  0
    1.7360    1.0058    0.0000 C   0  0  0  0  0  0  0  0  0  0  0  0
    3.4661    7.0138    0.0000 C   0  0  0  0  0  0  0  0  0  0  0  0
    2.6001    7.5138    0.0000 O   0  0  0  0  0  0  0  0  0  0  0  0
    4.3321    7.5138    0.0000 C   0  0  0  0  0  0  0  0  0  0  0  0
    4.3321    8.5138    0.0000 C   0  0  0  0  0  0  0  0  0  0  0  0
    5.1981    9.0138    0.0000 O   0  0  0  0  0  0  0  0  0  0  0  0
    5.1981   10.0138    0.0000 C   0  0  0  0  0  0  0  0  0  0  0  0
    6.0642   10.5138    0.0000 C   0  0  0  0  0  0  0  0  0  0  0  0
    6.0642   11.5138    0.0000 C   0  0  0  0  0  0  0  0  0  0  0  0
    5.1921   12.0138    0.0000 C   0  0  0  0  0  0  0  0  0  0  0  0
    5.1921   13.0139    0.0000 C   0  0  0  0  0  0  0  0  0  0  0  0
    6.0552   13.5189    0.0000 C   0  0  0  0  0  0  0  0  0  0  0  0
    6.9272   13.0189    0.0000 C   0  0  0  0  0  0  0  0  0  0  0  0
    6.9361   12.0138    0.0000 C   0  0  0  0  0  0  0  0  0  0  0  0
  1  2  1  0
  2  3  1  0
  3  4  1  0
  4  5  1  0
  5  6  1  0
  6  7  1  0
  7  8  1  0
  8 18  1  0
  8  9  2  0
  9 10  1  0
 10 11  2  0
 11 12  1  0
 11 13  1  0
 13 18  2  0
 13 14  1  0
 14 15  2  0
 15 16  1  0
 15 17  1  0
 17 18  1  0
  2 19  1  0
 19 20  2  0
 19 21  1  0
 21 22  1  0
 22 23  1  0
 23 24  1  0
 24 25  1  0
 25 26  1  0
 26 31  1  0
 26 27  2  0
 27 28  1  0
 28 29  2  0
 29 30  1  0
 30 31  2  0
M  END
>  <SMILES>  (203) 
CN(CCNCCc1ccc(O)c2nc(O)sc12)C(=O)CCOCCc1ccccc1

>  <CollectionName>  (203) 
chembl

>  <LOG PLASMA PROTEIN BINDING (RAT) (% unbound)>  (203) 
1.31868926995

>  <Internal ID>  (203) 


>  <Source>  (203) 
AstraZeneca

$$$$
CHEMBL2107366
     RDKit          2D

 16 17  0  0  1  0  0  0  0  0999 V2000
   -2.0005    0.5910    0.0000 C   0  0  0  0  0  0  0  0  0  0  0  0
   -1.2577    1.2605    0.0000 C   0  0  0  0  0  0  0  0  0  0  0  0
   -0.3065    0.9519    0.0000 C   0  0  0  0  0  0  0  0  0  0  0  0
    0.0000    0.0000    0.0000 C   0  0  0  0  0  0  0  0  0  0  0  0
    1.0015   -0.0000    0.0000 N   0  0  0  0  0  0  0  0  0  0  0  0
    1.3133    0.9519    0.0000 C   0  0  0  0  0  0  0  0  0  0  0  0
    2.2648    1.2596    0.0000 S   0  0  0  0  0  0  0  0  0  0  0  0
    0.5008    1.5428    0.0000 N   0  0  0  0  0  0  0  0  0  0  0  0
   -1.4660    2.2386    0.0000 C   0  0  0  0  0  0  0  0  0  0  0  0
   -2.4231    2.5459    0.0000 C   0  0  0  0  0  0  0  0  0  0  0  0
   -2.6315    3.5240    0.0000 C   0  0  0  0  0  0  0  0  0  0  0  0
   -1.8925    4.1978    0.0000 C   0  0  0  0  0  0  0  0  0  0  0  0
   -0.9355    3.8904    0.0000 C   0  0  0  0  0  0  0  0  0  0  0  0
   -0.1966    4.5643    0.0000 C   0  0  0  0  0  0  0  0  0  0  0  0
   -0.7174    2.9093    0.0000 C   0  0  0  0  0  0  0  0  0  0  0  0
    0.2347    2.6035    0.0000 C   0  0  0  0  0  0  0  0  0  0  0  0
  2  1  1  1
  2  3  1  0
  3  8  1  0
  3  4  2  0
  4  5  1  0
  5  6  1  0
  6  7  2  0
  6  8  1  0
  2  9  1  0
  9 15  1  0
  9 10  2  0
 10 11  1  0
 11 12  2  0
 12 13  1  0
 13 14  1  0
 13 15  2  0
 15 16  1  0
M  END
>  <SMILES>  (204) 
Cc1cccc([C@H](C)c2c[nH]c(=S)[nH]2)c1C

>  <CollectionName>  (204) 
chembl

>  <LOG PLASMA PROTEIN BINDING (RAT) (% unbound)>  (204) 
1.27852496474

>  <Internal ID>  (204) 


>  <Source>  (204) 
AstraZeneca

$$$$
CHEMBL2069403
     RDKit          2D

 32 36  0  0  1  0  0  0  0  0999 V2000
    0.8675   -1.4975    0.0000 C   0  0  0  0  0  0  0  0  0  0  0  0
    0.8675   -0.4975    0.0000 N   0  0  0  0  0  0  0  0  0  0  0  0
    0.0000    0.0000    0.0000 C   0  0  0  0  0  0  0  0  0  0  0  0
    0.0000    1.0052    0.0000 C   0  0  0  0  0  0  0  0  0  0  0  0
    0.8675    1.5129    0.0000 N   0  0  0  0  0  0  0  0  0  0  0  0
    1.7350    1.0052    0.0000 C   0  0  0  0  0  0  0  0  0  0  0  0
    1.7350    0.0000    0.0000 C   0  0  0  0  0  0  0  0  0  0  0  0
    0.8675    2.5129    0.0000 C   0  0  0  0  0  0  0  0  0  0  0  0
   -0.0008    3.0102    0.0000 C   0  0  0  0  0  0  0  0  0  0  0  0
   -0.0013    4.0159    0.0000 C   0  0  0  0  0  0  0  0  0  0  0  0
    0.8665    4.5245    0.0000 C   0  0  0  0  0  0  0  0  0  0  0  0
    1.7361    4.0169    0.0000 C   0  0  0  0  0  0  0  0  0  0  0  0
    2.6037    4.5225    0.0000 O   0  0  0  0  0  0  0  0  0  0  0  0
    3.4761    4.0155    0.0000 C   0  0  0  0  0  0  0  0  0  0  0  0
    3.4753    3.0085    0.0000 C   0  0  0  0  0  0  0  0  0  0  0  0
    2.6021    2.5084    0.0000 C   0  0  0  0  0  0  0  0  0  0  0  0
    1.7352    3.0100    0.0000 C   0  0  0  0  0  0  0  0  0  0  0  0
    4.3403    2.5066    0.0000 N   0  0  0  0  0  0  0  0  0  0  0  0
    5.2074    3.0047    0.0000 C   0  0  0  0  0  0  0  0  0  0  0  0
    5.2095    4.0047    0.0000 O   0  0  0  0  0  0  0  0  0  0  0  0
    6.0723    2.5029    0.0000 C   0  0  0  0  0  0  0  0  0  0  0  0
    6.9859    2.9106    0.0000 N   0  0  0  0  0  0  0  0  0  0  0  0
    7.6559    2.1620    0.0000 N   0  0  0  0  0  0  0  0  0  0  0  0
    7.1508    1.2971    0.0000 N   0  0  0  0  0  0  0  0  0  0  0  0
    6.1717    1.5079    0.0000 C   0  0  0  0  0  0  0  0  0  0  0  0
    5.4260    0.8416    0.0000 C   0  0  0  0  0  0  0  0  0  0  0  0
    8.6508    2.2626    0.0000 C   0  0  0  0  0  0  0  0  0  0  0  0
    9.0606    3.1805    0.0000 C   0  0  0  0  0  0  0  0  0  0  0  0
   10.0555    3.2811    0.0000 C   0  0  0  0  0  0  0  0  0  0  0  0
   10.6449    2.4732    0.0000 C   0  0  0  0  0  0  0  0  0  0  0  0
   10.2351    1.5553    0.0000 C   0  0  0  0  0  0  0  0  0  0  0  0
    9.2360    1.4454    0.0000 C   0  0  0  0  0  0  0  0  0  0  0  0
  1  2  1  0
  2  7  1  0
  2  3  1  0
  3  4  1  0
  4  5  1  0
  5  6  1  0
  6  7  1  0
  5  8  1  0
  8 17  1  0
  8  9  2  0
  9 10  1  0
 10 11  2  0
 11 12  1  0
 12 17  2  0
 12 13  1  0
 13 14  1  0
 14 15  1  0
 15 16  1  0
 16 17  1  0
 15 18  1  1
 18 19  1  0
 19 20  2  0
 19 21  1  0
 21 25  1  0
 21 22  2  0
 22 23  1  0
 23 24  1  0
 24 25  2  0
 25 26  1  0
 23 27  1  0
 27 32  1  0
 27 28  2  0
 28 29  1  0
 29 30  2  0
 30 31  1  0
 31 32  2  0
M  END
>  <SMILES>  (205) 
Cc1nn(-c2ccccc2)nc1C(=O)N[C@@H]1COc2cccc(N3CCN(C)CC3)c2C1

>  <CollectionName>  (205) 
chembl

>  <LOG PLASMA PROTEIN BINDING (RAT) (% unbound)>  (205) 
0.583198773969

>  <Internal ID>  (205) 


>  <Source>  (205) 
AstraZeneca

$$$$
CHEMBL2071507
     RDKit          2D

 28 29  0  0  1  0  0  0  0  0999 V2000
    1.7439    4.0052    0.0000 C   0  0  0  0  0  0  0  0  0  0  0  0
    1.7409    3.0052    0.0000 C   0  0  0  0  0  0  0  0  0  0  0  0
    0.8734    2.5077    0.0000 C   0  0  0  0  0  0  0  0  0  0  0  0
    2.6054    2.5026    0.0000 C   0  0  0  0  0  0  0  0  0  0  0  0
    3.4729    3.0001    0.0000 N   0  0  0  0  0  0  0  0  0  0  0  0
    4.3375    2.4975    0.0000 C   0  0  0  0  0  0  0  0  0  0  0  0
    4.3345    1.4975    0.0000 O   0  0  0  0  0  0  0  0  0  0  0  0
    5.2050    2.9950    0.0000 C   0  0  0  0  0  0  0  0  0  0  0  0
    6.0725    2.4873    0.0000 C   0  0  0  0  0  0  0  0  0  0  0  0
    6.9400    2.9950    0.0000 C   0  0  0  0  0  0  0  0  0  0  0  0
    7.8075    2.4975    0.0000 Cl  0  0  0  0  0  0  0  0  0  0  0  0
    6.9400    4.0002    0.0000 C   0  0  0  0  0  0  0  0  0  0  0  0
    6.0725    4.4977    0.0000 C   0  0  0  0  0  0  0  0  0  0  0  0
    5.2050    4.0002    0.0000 C   0  0  0  0  0  0  0  0  0  0  0  0
    3.6907    4.8774    0.0000 C   0  0  0  0  0  0  0  0  0  0  0  0
    3.1895    4.0121    0.0000 F   0  0  0  0  0  0  0  0  0  0  0  0
    4.1920    5.7427    0.0000 F   0  0  0  0  0  0  0  0  0  0  0  0
    2.8254    5.3786    0.0000 F   0  0  0  0  0  0  0  0  0  0  0  0
    2.6025    1.5026    0.0000 C   0  0  0  0  0  0  0  0  0  0  0  0
    3.4670    1.0001    0.0000 O   0  0  0  0  0  0  0  0  0  0  0  0
    1.7350    1.0052    0.0000 C   0  0  0  0  0  0  0  0  0  0  0  0
    1.7350    0.0000    0.0000 C   0  0  0  0  0  0  0  0  0  0  0  0
    0.8675   -0.4975    0.0000 C   0  0  0  0  0  0  0  0  0  0  0  0
    0.0000    0.0000    0.0000 C   0  0  0  0  0  0  0  0  0  0  0  0
   -0.0000    1.0052    0.0000 C   0  0  0  0  0  0  0  0  0  0  0  0
    0.8675    1.5129    0.0000 C   0  0  0  0  0  0  0  0  0  0  0  0
   -0.8653   -0.5013    0.0000 C   0  0  0  0  0  0  0  0  0  0  0  0
   -1.7306   -1.0025    0.0000 N   0  0  0  0  0  0  0  0  0  0  0  0
  1  2  1  0
  2  3  1  0
  2  4  1  0
  4  5  1  0
  5  6  1  0
  6  7  2  0
  6  8  1  0
  8 14  1  0
  8  9  2  0
  9 10  1  0
 10 11  1  0
 10 12  2  0
 12 13  1  0
 13 14  2  0
 14 15  1  0
 15 16  1  0
 15 17  1  0
 15 18  1  0
  4 19  1  0
 19 20  2  0
 19 21  1  0
 21 26  1  0
 21 22  2  0
 22 23  1  0
 23 24  2  0
 24 25  1  0
 25 26  2  0
 24 27  1  0
 27 28  3  0
M  END
>  <SMILES>  (206) 
CC(C)C(NC(=O)c1cc(Cl)ccc1C(F)(F)F)C(=O)c1ccc(C#N)cc1

>  <CollectionName>  (206) 
chembl

>  <LOG PLASMA PROTEIN BINDING (RAT) (% unbound)>  (206) 
0.631443769013

>  <Internal ID>  (206) 


>  <Source>  (206) 
AstraZeneca

$$$$
CHEMBL2074773
     RDKit          2D

 16 16  0  0  0  0  0  0  0  0999 V2000
   -4.3463    6.4925    0.0000 O   0  0  0  0  0  0  0  0  0  0  0  0
   -3.4788    5.9950    0.0000 C   0  0  0  0  0  0  0  0  0  0  0  0
   -3.4759    4.9950    0.0000 C   0  0  0  0  0  0  0  0  0  0  0  0
   -2.6084    4.4976    0.0000 N   0  0  0  0  0  0  0  0  0  0  0  0
   -2.6054    3.4976    0.0000 C   0  0  0  0  0  0  0  0  0  0  0  0
   -3.4700    2.9950    0.0000 S   0  0  0  0  0  0  0  0  0  0  0  0
   -1.7379    3.0001    0.0000 N   0  0  0  0  0  0  0  0  0  0  0  0
   -1.7350    2.0001    0.0000 C   0  0  0  0  0  0  0  0  0  0  0  0
   -0.8675    1.5027    0.0000 C   0  0  0  0  0  0  0  0  0  0  0  0
   -0.8675    0.4975    0.0000 C   0  0  0  0  0  0  0  0  0  0  0  0
    0.0000    0.0000    0.0000 C   0  0  0  0  0  0  0  0  0  0  0  0
    0.8675    0.4975    0.0000 C   0  0  0  0  0  0  0  0  0  0  0  0
    0.8675    1.5027    0.0000 C   0  0  0  0  0  0  0  0  0  0  0  0
    1.7350    2.0001    0.0000 Cl  0  0  0  0  0  0  0  0  0  0  0  0
   -0.0000    2.0104    0.0000 C   0  0  0  0  0  0  0  0  0  0  0  0
   -0.0000    3.0104    0.0000 F   0  0  0  0  0  0  0  0  0  0  0  0
  1  2  1  0
  2  3  1  0
  3  4  1  0
  4  5  1  0
  5  6  2  0
  5  7  1  0
  7  8  1  0
  8  9  1  0
  9 15  2  0
  9 10  1  0
 10 11  2  0
 11 12  1  0
 12 13  2  0
 13 14  1  0
 13 15  1  0
 15 16  1  0
M  END
>  <SMILES>  (207) 
OCCNC(=S)NCc1cccc(Cl)c1F

>  <CollectionName>  (207) 
chembl

>  <LOG PLASMA PROTEIN BINDING (RAT) (% unbound)>  (207) 
1.20411998266

>  <Internal ID>  (207) 


>  <Source>  (207) 
AstraZeneca

$$$$
CHEMBL36
     RDKit          2D

 17 18  0  0  0  0  0  0  0  0999 V2000
   -0.8704    2.5026    0.0000 C   0  0  0  0  0  0  0  0  0  0  0  0
   -0.8675    1.5026    0.0000 C   0  0  0  0  0  0  0  0  0  0  0  0
    0.0000    1.0052    0.0000 C   0  0  0  0  0  0  0  0  0  0  0  0
    0.8675    1.5129    0.0000 N   0  0  0  0  0  0  0  0  0  0  0  0
    1.7350    1.0052    0.0000 C   0  0  0  0  0  0  0  0  0  0  0  0
    2.6025    1.5026    0.0000 N   0  0  0  0  0  0  0  0  0  0  0  0
    1.7350    0.0000    0.0000 N   0  0  0  0  0  0  0  0  0  0  0  0
    0.8675   -0.4975    0.0000 C   0  0  0  0  0  0  0  0  0  0  0  0
    0.8675   -1.4975    0.0000 N   0  0  0  0  0  0  0  0  0  0  0  0
    0.0000    0.0000    0.0000 C   0  0  0  0  0  0  0  0  0  0  0  0
   -0.8653   -0.5013    0.0000 C   0  0  0  0  0  0  0  0  0  0  0  0
   -1.7328   -0.0038    0.0000 C   0  0  0  0  0  0  0  0  0  0  0  0
   -2.6003   -0.5013    0.0000 C   0  0  0  0  0  0  0  0  0  0  0  0
   -2.6003   -1.5065    0.0000 C   0  0  0  0  0  0  0  0  0  0  0  0
   -3.4678   -2.0039    0.0000 Cl  0  0  0  0  0  0  0  0  0  0  0  0
   -1.7328   -2.0142    0.0000 C   0  0  0  0  0  0  0  0  0  0  0  0
   -0.8653   -1.5065    0.0000 C   0  0  0  0  0  0  0  0  0  0  0  0
  1  2  1  0
  2  3  1  0
  3 10  2  0
  3  4  1  0
  4  5  2  0
  5  6  1  0
  5  7  1  0
  7  8  2  0
  8  9  1  0
  8 10  1  0
 10 11  1  0
 11 17  1  0
 11 12  2  0
 12 13  1  0
 13 14  2  0
 14 15  1  0
 14 16  1  0
 16 17  2  0
M  END
>  <SMILES>  (208) 
CCc1nc(N)nc(N)c1-c1ccc(Cl)cc1

>  <CollectionName>  (208) 
chembl

>  <LOG PLASMA PROTEIN BINDING (RAT) (% unbound)>  (208) 
0.838849090737

>  <Internal ID>  (208) 


>  <Source>  (208) 
AstraZeneca

$$$$
CHEMBL1096896
     RDKit          2D

 57 63  0  0  1  0  0  0  0  0999 V2000
   -0.4331   -6.7198    0.0000 C   0  0  0  0  0  0  0  0  0  0  0  0
    0.5447   -6.5101    0.0000 C   0  0  0  0  0  0  0  0  0  0  0  0
    0.8519   -5.5585    0.0000 N   0  0  0  0  0  0  0  0  0  0  0  0
    1.8297   -5.3488    0.0000 C   0  0  0  0  0  0  0  0  0  0  0  0
    2.5002   -6.0907    0.0000 O   0  0  0  0  0  0  0  0  0  0  0  0
    2.1370   -4.3972    0.0000 C   0  0  0  0  0  0  0  0  0  0  0  0
    1.5450   -3.5907    0.0000 O   0  0  0  0  0  0  0  0  0  0  0  0
    2.1348   -2.7774    0.0000 C   0  0  0  0  0  0  0  0  0  0  0  0
    3.0871   -3.0879    0.0000 C   0  0  0  0  0  0  0  0  0  0  0  0
    3.8960   -2.4999    0.0000 O   0  0  0  0  0  0  0  0  0  0  0  0
    3.0885   -4.0894    0.0000 C   0  0  0  0  0  0  0  0  0  0  0  0
    3.8975   -4.6771    0.0000 O   0  0  0  0  0  0  0  0  0  0  0  0
    1.8258   -1.8263    0.0000 N   0  0  0  0  0  0  0  0  0  0  0  0
    2.4178   -1.0115    0.0000 C   0  0  0  0  0  0  0  0  0  0  0  0
    1.8258   -0.1969    0.0000 N   0  0  0  0  0  0  0  0  0  0  0  0
    0.8680   -0.5079    0.0000 C   0  0  0  0  0  0  0  0  0  0  0  0
    0.0000    0.0000    0.0000 C   0  0  0  0  0  0  0  0  0  0  0  0
    0.0000    1.0000    0.0000 N   0  0  0  0  0  0  0  0  0  0  0  0
   -0.8660    1.5000    0.0000 C   0  0  0  0  0  0  0  0  0  0  0  0
   -0.8660    2.5000    0.0000 C   0  0  0  0  0  0  0  0  0  0  0  0
   -1.7321    3.0000    0.0000 C   0  0  0  0  0  0  0  0  0  0  0  0
   -2.6011    2.4948    0.0000 C   0  0  0  0  0  0  0  0  0  0  0  0
   -3.4672    2.9948    0.0000 C   0  0  0  0  0  0  0  0  0  0  0  0
   -3.4730    3.9948    0.0000 C   0  0  0  0  0  0  0  0  0  0  0  0
   -2.6040    4.5000    0.0000 C   0  0  0  0  0  0  0  0  0  0  0  0
   -1.7291    4.0051    0.0000 C   0  0  0  0  0  0  0  0  0  0  0  0
    0.0000    3.0000    0.0000 C   0  0  0  0  0  0  0  0  0  0  0  0
   -0.0030    4.0052    0.0000 C   0  0  0  0  0  0  0  0  0  0  0  0
    0.8631    4.5053    0.0000 C   0  0  0  0  0  0  0  0  0  0  0  0
    1.7320    4.0103    0.0000 C   0  0  0  0  0  0  0  0  0  0  0  0
    1.7350    3.0051    0.0000 C   0  0  0  0  0  0  0  0  0  0  0  0
    0.8690    2.4949    0.0000 C   0  0  0  0  0  0  0  0  0  0  0  0
   -0.8680   -0.5079    0.0000 N   0  0  0  0  0  0  0  0  0  0  0  0
   -0.8680   -1.5137    0.0000 C   0  0  0  0  0  0  0  0  0  0  0  0
   -0.0000   -2.0116    0.0000 N   0  0  0  0  0  0  0  0  0  0  0  0
    0.8680   -1.5150    0.0000 C   0  0  0  0  0  0  0  0  0  0  0  0
   -1.7333   -2.0149    0.0000 C   0  0  0  0  0  0  0  0  0  0  0  0
   -1.7319   -3.0149    0.0000 O   0  0  0  0  0  0  0  0  0  0  0  0
   -2.6000   -1.5161    0.0000 N   0  0  0  0  0  0  0  0  0  0  0  0
   -3.4654   -2.0173    0.0000 C   0  0  0  0  0  0  0  0  0  0  0  0
   -4.3321   -1.5186    0.0000 C   0  0  0  0  0  0  0  0  0  0  0  0
   -5.1974   -2.0198    0.0000 N   0  0  0  0  0  0  0  0  0  0  0  0
   -6.0641   -1.5210    0.0000 C   0  0  0  0  0  0  0  0  0  0  0  0
   -6.0655   -0.5210    0.0000 O   0  0  0  0  0  0  0  0  0  0  0  0
   -6.9295   -2.0222    0.0000 N   0  0  0  0  0  0  0  0  0  0  0  0
   -7.7962   -1.5234    0.0000 C   0  0  0  0  0  0  0  0  0  0  0  0
   -8.6601   -2.0271    0.0000 C   0  0  0  0  0  0  0  0  0  0  0  0
   -9.5313   -1.5258    0.0000 C   0  0  0  0  0  0  0  0  0  0  0  0
   -9.5387   -0.5207    0.0000 N   0  0  0  0  0  0  0  0  0  0  0  0
   -8.6659   -0.0220    0.0000 C   0  0  0  0  0  0  0  0  0  0  0  0
   -7.7947   -0.5234    0.0000 C   0  0  0  0  0  0  0  0  0  0  0  0
  -10.4054   -0.0219    0.0000 C   0  0  0  0  0  0  0  0  0  0  0  0
  -11.2737   -0.5282    0.0000 C   0  0  0  0  0  0  0  0  0  0  0  0
  -12.1405   -0.0295    0.0000 C   0  0  0  0  0  0  0  0  0  0  0  0
  -12.1477    0.9705    0.0000 C   0  0  0  0  0  0  0  0  0  0  0  0
  -11.2794    1.4769    0.0000 C   0  0  0  0  0  0  0  0  0  0  0  0
  -10.4038    0.9833    0.0000 N   0  0  0  0  0  0  0  0  0  0  0  0
  1  2  1  0
  2  3  1  0
  3  4  1  0
  4  5  2  0
  6  4  1  1
  6 11  1  0
  6  7  1  0
  7  8  1  0
  8  9  1  0
  9 10  1  6
  9 11  1  0
 11 12  1  6
  8 13  1  1
 13 36  1  0
 13 14  1  0
 14 15  2  0
 15 16  1  0
 16 36  2  0
 16 17  1  0
 17 18  1  0
 18 19  1  0
 19 20  1  0
 20 21  1  0
 21 26  1  0
 21 22  2  0
 22 23  1  0
 23 24  2  0
 24 25  1  0
 25 26  2  0
 20 27  1  0
 27 32  1  0
 27 28  2  0
 28 29  1  0
 29 30  2  0
 30 31  1  0
 31 32  2  0
 17 33  2  0
 33 34  1  0
 34 35  2  0
 35 36  1  0
 34 37  1  0
 37 38  2  0
 37 39  1  0
 39 40  1  0
 40 41  1  0
 41 42  1  0
 42 43  1  0
 43 44  2  0
 43 45  1  0
 45 46  1  0
 46 51  1  0
 46 47  1  0
 47 48  1  0
 48 49  1  0
 49 50  1  0
 50 51  1  0
 49 52  1  0
 52 57  1  0
 52 53  2  0
 53 54  1  0
 54 55  2  0
 55 56  1  0
 56 57  2  0
M  END
>  <SMILES>  (209) 
CCNC(=O)[C@H]1O[C@@H](n2cnc3c(NCC(c4ccccc4)c4ccccc4)nc(C(=O)NCCNC(=O)NC4CCN(c5ccccn5)CC4)nc32)[C@H](O)[C@@H]1O

>  <CollectionName>  (209) 
chembl

>  <LOG PLASMA PROTEIN BINDING (RAT) (% unbound)>  (209) 
0.152288344383

>  <Internal ID>  (209) 


>  <Source>  (209) 
AstraZeneca

$$$$
CHEMBL2030560
     RDKit          2D

 18 20  0  0  0  0  0  0  0  0999 V2000
    4.2858    0.5023    0.0000 N   0  0  0  0  0  0  0  0  0  0  0  0
    3.2858    0.5022    0.0000 C   0  0  0  0  0  0  0  0  0  0  0  0
    2.6938   -0.3126    0.0000 N   0  0  0  0  0  0  0  0  0  0  0  0
    1.7360   -0.0013    0.0000 C   0  0  0  0  0  0  0  0  0  0  0  0
    0.8680   -0.4979    0.0000 C   0  0  0  0  0  0  0  0  0  0  0  0
    0.0000    0.0000    0.0000 C   0  0  0  0  0  0  0  0  0  0  0  0
    0.0000    1.0058    0.0000 C   0  0  0  0  0  0  0  0  0  0  0  0
    0.8680    1.5137    0.0000 C   0  0  0  0  0  0  0  0  0  0  0  0
    1.7360    1.0058    0.0000 C   0  0  0  0  0  0  0  0  0  0  0  0
    2.6938    1.3168    0.0000 N   0  0  0  0  0  0  0  0  0  0  0  0
   -0.8675    1.5033    0.0000 C   0  0  0  0  0  0  0  0  0  0  0  0
   -1.7320    1.0008    0.0000 O   0  0  0  0  0  0  0  0  0  0  0  0
   -0.8704    2.5033    0.0000 C   0  0  0  0  0  0  0  0  0  0  0  0
   -1.7438    3.0008    0.0000 C   0  0  0  0  0  0  0  0  0  0  0  0
   -1.7468    4.0008    0.0000 C   0  0  0  0  0  0  0  0  0  0  0  0
   -0.8852    4.5084    0.0000 C   0  0  0  0  0  0  0  0  0  0  0  0
   -0.0117    4.0109    0.0000 C   0  0  0  0  0  0  0  0  0  0  0  0
    0.0001    3.0058    0.0000 C   0  0  0  0  0  0  0  0  0  0  0  0
  1  2  1  0
  2 10  1  0
  2  3  2  0
  3  4  1  0
  4  9  2  0
  4  5  1  0
  5  6  2  0
  6  7  1  0
  7  8  2  0
  8  9  1  0
  9 10  1  0
  7 11  1  0
 11 12  2  0
 11 13  1  0
 13 18  1  0
 13 14  2  0
 14 15  1  0
 15 16  2  0
 16 17  1  0
 17 18  2  0
M  END
>  <SMILES>  (210) 
Nc1nc2ccc(C(=O)c3ccccc3)cc2[nH]1

>  <CollectionName>  (210) 
chembl

>  <LOG PLASMA PROTEIN BINDING (RAT) (% unbound)>  (210) 
0.866877814337

>  <Internal ID>  (210) 


>  <Source>  (210) 
AstraZeneca

$$$$
CHEMBL2030567
     RDKit          2D

 36 40  0  0  1  0  0  0  0  0999 V2000
    3.9703    3.5024    0.0000 C   0  0  0  0  0  0  0  0  0  0  0  0
    3.3018    4.2461    0.0000 C   0  0  0  0  0  0  0  0  0  0  0  0
    2.3235    4.0391    0.0000 N   0  0  0  0  0  0  0  0  0  0  0  0
    1.6550    4.7828    0.0000 C   0  0  0  0  0  0  0  0  0  0  0  0
    1.9649    5.7336    0.0000 O   0  0  0  0  0  0  0  0  0  0  0  0
    0.6767    4.5758    0.0000 N   0  0  0  0  0  0  0  0  0  0  0  0
    0.0082    5.3196    0.0000 C   0  0  0  0  0  0  0  0  0  0  0  0
    0.2184    6.3044    0.0000 S   0  0  0  0  0  0  0  0  0  0  0  0
   -0.6532    6.8088    0.0000 C   0  0  0  0  0  0  0  0  0  0  0  0
   -0.8556    7.7940    0.0000 C   0  0  0  0  0  0  0  0  0  0  0  0
   -1.8136    8.1000    0.0000 C   0  0  0  0  0  0  0  0  0  0  0  0
   -2.5617    7.4277    0.0000 C   0  0  0  0  0  0  0  0  0  0  0  0
   -2.3518    6.4494    0.0000 C   0  0  0  0  0  0  0  0  0  0  0  0
   -1.4022    6.1357    0.0000 C   0  0  0  0  0  0  0  0  0  0  0  0
   -0.9935    5.2152    0.0000 C   0  0  0  0  0  0  0  0  0  0  0  0
   -1.4944    4.3497    0.0000 C   0  0  0  0  0  0  0  0  0  0  0  0
   -2.4944    4.3507    0.0000 O   0  0  0  0  0  0  0  0  0  0  0  0
   -0.9953    3.4832    0.0000 N   0  0  0  0  0  0  0  0  0  0  0  0
   -1.4936    2.6103    0.0000 C   0  0  0  0  0  0  0  0  0  0  0  0
   -0.9919    1.7392    0.0000 C   0  0  0  0  0  0  0  0  0  0  0  0
    0.0082    1.7411    0.0000 C   0  0  0  0  0  0  0  0  0  0  0  0
    0.5116    2.6052    0.0000 C   0  0  0  0  0  0  0  0  0  0  0  0
    0.0098    3.4763    0.0000 C   0  0  0  0  0  0  0  0  0  0  0  0
    0.5073    0.8746    0.0000 N   0  0  0  0  0  0  0  0  0  0  0  0
    0.0000    0.0000    0.0000 C   0  0  0  0  0  0  0  0  0  0  0  0
    0.5073   -0.8690    0.0000 C   0  0  0  0  0  0  0  0  0  0  0  0
    1.5163   -0.8690    0.0000 C   0  0  0  0  0  0  0  0  0  0  0  0
    2.0197   -0.0049    0.0000 C   0  0  0  0  0  0  0  0  0  0  0  0
    2.6170   -0.8182    0.0000 C   0  0  0  0  0  0  0  0  0  0  0  0
    3.5750   -0.5016    0.0000 C   0  0  0  0  0  0  0  0  0  0  0  0
    3.5700    0.5074    0.0000 N   0  0  0  0  0  0  0  0  0  0  0  0
    4.3761    1.0992    0.0000 C   0  0  0  0  0  0  0  0  0  0  0  0
    5.2916    0.6970    0.0000 C   0  0  0  0  0  0  0  0  0  0  0  0
    2.6088    0.8144    0.0000 C   0  0  0  0  0  0  0  0  0  0  0  0
    2.2951    1.7639    0.0000 O   0  0  0  0  0  0  0  0  0  0  0  0
    1.5163    0.8746    0.0000 C   0  0  0  0  0  0  0  0  0  0  0  0
  1  2  1  0
  2  3  1  0
  3  4  1  0
  4  5  2  0
  4  6  1  0
  6  7  1  0
  7 15  2  0
  7  8  1  0
  8  9  1  0
  9 14  2  0
  9 10  1  0
 10 11  2  0
 11 12  1  0
 12 13  2  0
 13 14  1  0
 14 15  1  0
 15 16  1  0
 16 17  2  0
 16 18  1  0
 18 23  1  0
 18 19  1  0
 19 20  1  0
 20 21  1  0
 21 22  1  0
 22 23  1  0
 21 24  1  0
 24 36  1  0
 24 25  1  0
 25 26  1  0
 26 27  1  0
 27 28  1  0
 28 34  1  0
 28 29  1  0
 29 30  1  0
 30 31  1  0
 31 32  1  0
 32 33  1  0
 31 34  1  0
 34 35  2  0
 28 36  1  0
M  END
>  <SMILES>  (211) 
CCNC(=O)Nc1sc2ccccc2c1C(=O)N1CCC(N2CCCC3(CCN(CC)C3=O)C2)CC1

>  <CollectionName>  (211) 
chembl

>  <LOG PLASMA PROTEIN BINDING (RAT) (% unbound)>  (211) 
1.22942584792

>  <Internal ID>  (211) 


>  <Source>  (211) 
AstraZeneca

$$$$
CHEMBL2010831
     RDKit          2D

 32 34  0  0  0  0  0  0  0  0999 V2000
    0.8660   -1.5000    0.0000 C   0  0  0  0  0  0  0  0  0  0  0  0
    0.0000   -1.0000    0.0000 N   0  0  0  0  0  0  0  0  0  0  0  0
    0.0000    0.0000    0.0000 C   0  0  0  0  0  0  0  0  0  0  0  0
   -0.8675    0.4975    0.0000 C   0  0  0  0  0  0  0  0  0  0  0  0
   -0.8675    1.5027    0.0000 C   0  0  0  0  0  0  0  0  0  0  0  0
   -0.0000    2.0104    0.0000 N   0  0  0  0  0  0  0  0  0  0  0  0
   -0.0000    3.0104    0.0000 C   0  0  0  0  0  0  0  0  0  0  0  0
    0.8660    3.5104    0.0000 C   0  0  0  0  0  0  0  0  0  0  0  0
    1.7328    3.0116    0.0000 C   0  0  0  0  0  0  0  0  0  0  0  0
    2.6010    3.5079    0.0000 C   0  0  0  0  0  0  0  0  0  0  0  0
    2.6025    4.5131    0.0000 C   0  0  0  0  0  0  0  0  0  0  0  0
    1.7357    5.0220    0.0000 C   0  0  0  0  0  0  0  0  0  0  0  0
    0.8675    4.5156    0.0000 C   0  0  0  0  0  0  0  0  0  0  0  0
    3.4707    5.0093    0.0000 C   0  0  0  0  0  0  0  0  0  0  0  0
    2.9745    5.8775    0.0000 F   0  0  0  0  0  0  0  0  0  0  0  0
    3.9669    4.1410    0.0000 F   0  0  0  0  0  0  0  0  0  0  0  0
    4.3389    5.5054    0.0000 F   0  0  0  0  0  0  0  0  0  0  0  0
    0.8675    1.5027    0.0000 C   0  0  0  0  0  0  0  0  0  0  0  0
    0.8675    0.4975    0.0000 C   0  0  0  0  0  0  0  0  0  0  0  0
   -0.8660   -1.5000    0.0000 C   0  0  0  0  0  0  0  0  0  0  0  0
   -1.7321   -1.0000    0.0000 O   0  0  0  0  0  0  0  0  0  0  0  0
   -0.8660   -2.5000    0.0000 C   0  0  0  0  0  0  0  0  0  0  0  0
   -1.7321   -3.0000    0.0000 C   0  0  0  0  0  0  0  0  0  0  0  0
   -2.5988   -2.5012    0.0000 C   0  0  0  0  0  0  0  0  0  0  0  0
   -3.4670   -2.9975    0.0000 C   0  0  0  0  0  0  0  0  0  0  0  0
   -3.4685   -4.0027    0.0000 C   0  0  0  0  0  0  0  0  0  0  0  0
   -2.6017   -4.5116    0.0000 C   0  0  0  0  0  0  0  0  0  0  0  0
   -1.7335   -4.0052    0.0000 C   0  0  0  0  0  0  0  0  0  0  0  0
   -4.3367   -4.4989    0.0000 S   0  0  0  0  0  0  0  0  0  0  0  0
   -4.8329   -3.6306    0.0000 O   0  0  0  0  0  0  0  0  0  0  0  0
   -3.8405   -5.3671    0.0000 O   0  0  0  0  0  0  0  0  0  0  0  0
   -5.2049   -4.9950    0.0000 C   0  0  0  0  0  0  0  0  0  0  0  0
  1  2  1  0
  2  3  1  0
  3 19  1  0
  3  4  1  0
  4  5  1  0
  5  6  1  0
  6  7  1  0
  7  8  1  0
  8 13  1  0
  8  9  2  0
  9 10  1  0
 10 11  2  0
 11 12  1  0
 12 13  2  0
 11 14  1  0
 14 15  1  0
 14 16  1  0
 14 17  1  0
  6 18  1  0
 18 19  1  0
  2 20  1  0
 20 21  2  0
 20 22  1  0
 22 23  1  0
 23 28  1  0
 23 24  2  0
 24 25  1  0
 25 26  2  0
 26 27  1  0
 27 28  2  0
 26 29  1  0
 29 30  2  0
 29 31  2  0
 29 32  1  0
M  END
>  <SMILES>  (212) 
CN(C(=O)Cc1ccc(S(C)(=O)=O)cc1)C1CCN(Cc2ccc(C(F)(F)F)cc2)CC1

>  <CollectionName>  (212) 
chembl

>  <LOG PLASMA PROTEIN BINDING (RAT) (% unbound)>  (212) 
1.20411998266

>  <Internal ID>  (212) 


>  <Source>  (212) 
AstraZeneca

$$$$
CHEMBL2011118
     RDKit          2D

 36 39  0  0  1  0  0  0  0  0999 V2000
    2.0919    0.0515    0.0000 C   0  0  0  0  0  0  0  0  0  0  0  0
    1.5920   -0.8145    0.0000 C   0  0  0  0  0  0  0  0  0  0  0  0
    2.0921   -1.6805    0.0000 C   0  0  0  0  0  0  0  0  0  0  0  0
    0.5920   -0.8146    0.0000 N   0  0  0  0  0  0  0  0  0  0  0  0
    0.0000    0.0000    0.0000 C   0  0  0  0  0  0  0  0  0  0  0  0
   -0.9578   -0.3110    0.0000 C   0  0  0  0  0  0  0  0  0  0  0  0
   -1.8258    0.1969    0.0000 C   0  0  0  0  0  0  0  0  0  0  0  0
   -1.8258    1.1969    0.0000 N   0  0  0  0  0  0  0  0  0  0  0  0
   -2.6918    1.6969    0.0000 C   0  0  0  0  0  0  0  0  0  0  0  0
   -3.5579    1.1969    0.0000 C   0  0  0  0  0  0  0  0  0  0  0  0
   -2.6918    2.6969    0.0000 C   0  0  0  0  0  0  0  0  0  0  0  0
   -1.8265    3.1982    0.0000 C   0  0  0  0  0  0  0  0  0  0  0  0
   -1.8221    4.1982    0.0000 C   0  0  0  0  0  0  0  0  0  0  0  0
   -2.6919    4.7021    0.0000 C   0  0  0  0  0  0  0  0  0  0  0  0
   -2.6875    5.7020    0.0000 O   0  0  0  0  0  0  0  0  0  0  0  0
   -3.5514    6.2059    0.0000 C   0  0  0  0  0  0  0  0  0  0  0  0
   -4.0552    5.3420    0.0000 F   0  0  0  0  0  0  0  0  0  0  0  0
   -3.0476    7.0697    0.0000 F   0  0  0  0  0  0  0  0  0  0  0  0
   -4.4152    6.7097    0.0000 F   0  0  0  0  0  0  0  0  0  0  0  0
   -3.5661    4.2059    0.0000 C   0  0  0  0  0  0  0  0  0  0  0  0
   -3.5616    3.2008    0.0000 C   0  0  0  0  0  0  0  0  0  0  0  0
   -2.6938   -0.3110    0.0000 N   0  0  0  0  0  0  0  0  0  0  0  0
   -2.6938   -1.3168    0.0000 C   0  0  0  0  0  0  0  0  0  0  0  0
   -1.8258   -1.8147    0.0000 N   0  0  0  0  0  0  0  0  0  0  0  0
   -0.9578   -1.3181    0.0000 C   0  0  0  0  0  0  0  0  0  0  0  0
    0.0000   -1.6294    0.0000 C   0  0  0  0  0  0  0  0  0  0  0  0
    0.3090   -2.5805    0.0000 O   0  0  0  0  0  0  0  0  0  0  0  0
   -3.5591   -1.8180    0.0000 N   0  0  0  0  0  0  0  0  0  0  0  0
   -3.5548   -2.8180    0.0000 C   0  0  0  0  0  0  0  0  0  0  0  0
   -4.4246   -3.3219    0.0000 C   0  0  0  0  0  0  0  0  0  0  0  0
   -5.2988   -2.8257    0.0000 N   0  0  0  0  0  0  0  0  0  0  0  0
   -5.2942   -1.8205    0.0000 C   0  0  0  0  0  0  0  0  0  0  0  0
   -4.4244   -1.3167    0.0000 C   0  0  0  0  0  0  0  0  0  0  0  0
   -6.1641   -3.3269    0.0000 C   0  0  0  0  0  0  0  0  0  0  0  0
   -6.1627   -4.3269    0.0000 O   0  0  0  0  0  0  0  0  0  0  0  0
   -7.0308   -2.8281    0.0000 C   0  0  0  0  0  0  0  0  0  0  0  0
  1  2  1  0
  2  3  1  0
  2  4  1  0
  4 26  1  0
  4  5  1  0
  5  6  1  0
  6 25  2  0
  6  7  1  0
  7  8  1  0
  8  9  1  0
  9 10  1  6
  9 11  1  0
 11 21  1  0
 11 12  2  0
 12 13  1  0
 13 14  2  0
 14 15  1  0
 15 16  1  0
 16 17  1  0
 16 18  1  0
 16 19  1  0
 14 20  1  0
 20 21  2  0
  7 22  2  0
 22 23  1  0
 23 24  2  0
 24 25  1  0
 25 26  1  0
 26 27  2  0
 23 28  1  0
 28 33  1  0
 28 29  1  0
 29 30  1  0
 30 31  1  0
 31 32  1  0
 32 33  1  0
 31 34  1  0
 34 35  2  0
 34 36  1  0
M  END
>  <SMILES>  (213) 
CC(=O)N1CCN(c2nc(N[C@H](C)c3ccc(OC(F)(F)F)cc3)c3c(n2)C(=O)N(C(C)C)C3)CC1

>  <CollectionName>  (213) 
chembl

>  <LOG PLASMA PROTEIN BINDING (RAT) (% unbound)>  (213) 
1.01283722471

>  <Internal ID>  (213) 


>  <Source>  (213) 
AstraZeneca

$$$$
CHEMBL2017291
     RDKit          2D

 31 35  0  0  1  0  0  0  0  0999 V2000
   -0.8704    2.5031    0.0000 C   0  0  0  0  0  0  0  0  0  0  0  0
   -0.8675    1.5031    0.0000 O   0  0  0  0  0  0  0  0  0  0  0  0
    0.0000    1.0056    0.0000 C   0  0  0  0  0  0  0  0  0  0  0  0
    0.8679    1.5134    0.0000 C   0  0  0  0  0  0  0  0  0  0  0  0
    1.7358    1.0056    0.0000 C   0  0  0  0  0  0  0  0  0  0  0  0
    2.6012    1.5124    0.0000 C   0  0  0  0  0  0  0  0  0  0  0  0
    2.8140    2.4976    0.0000 N   0  0  0  0  0  0  0  0  0  0  0  0
    2.1472    3.2429    0.0000 C   0  0  0  0  0  0  0  0  0  0  0  0
    1.1684    3.0381    0.0000 C   0  0  0  0  0  0  0  0  0  0  0  0
    2.4593    4.1929    0.0000 C   0  0  0  0  0  0  0  0  0  0  0  0
    1.7868    4.9401    0.0000 C   0  0  0  0  0  0  0  0  0  0  0  0
    2.0989    5.8902    0.0000 C   0  0  0  0  0  0  0  0  0  0  0  0
    3.0765    6.1007    0.0000 C   0  0  0  0  0  0  0  0  0  0  0  0
    3.7489    5.3536    0.0000 C   0  0  0  0  0  0  0  0  0  0  0  0
    3.4437    4.3959    0.0000 N   0  0  0  0  0  0  0  0  0  0  0  0
    3.8170    2.5999    0.0000 C   0  0  0  0  0  0  0  0  0  0  0  0
    4.3198    3.4643    0.0000 O   0  0  0  0  0  0  0  0  0  0  0  0
    4.2240    1.6775    0.0000 N   0  0  0  0  0  0  0  0  0  0  0  0
    3.4726    1.0054    0.0000 C   0  0  0  0  0  0  0  0  0  0  0  0
    3.4748    0.0022    0.0000 C   0  0  0  0  0  0  0  0  0  0  0  0
    2.6038   -0.4989    0.0000 N   0  0  0  0  0  0  0  0  0  0  0  0
    1.7371   -0.0000    0.0000 C   0  0  0  0  0  0  0  0  0  0  0  0
    0.8679   -0.4978    0.0000 C   0  0  0  0  0  0  0  0  0  0  0  0
    0.0000    0.0000    0.0000 C   0  0  0  0  0  0  0  0  0  0  0  0
   -0.8653   -0.5012    0.0000 C   0  0  0  0  0  0  0  0  0  0  0  0
   -0.9698   -1.4958    0.0000 C   0  0  0  0  0  0  0  0  0  0  0  0
   -0.2245   -2.1626    0.0000 C   0  0  0  0  0  0  0  0  0  0  0  0
   -1.9470   -1.7099    0.0000 O   0  0  0  0  0  0  0  0  0  0  0  0
   -2.4513   -0.8410    0.0000 N   0  0  0  0  0  0  0  0  0  0  0  0
   -1.7813   -0.0964    0.0000 C   0  0  0  0  0  0  0  0  0  0  0  0
   -1.9908    0.8814    0.0000 C   0  0  0  0  0  0  0  0  0  0  0  0
  1  2  1  0
  2  3  1  0
  3 24  2  0
  3  4  1  0
  4  5  2  0
  5 22  1  0
  5  6  1  0
  6 19  2  0
  6  7  1  0
  7  8  1  0
  8  9  1  6
  8 10  1  0
 10 15  1  0
 10 11  2  0
 11 12  1  0
 12 13  2  0
 13 14  1  0
 14 15  2  0
  7 16  1  0
 16 17  2  0
 16 18  1  0
 18 19  1  0
 19 20  1  0
 20 21  2  0
 21 22  1  0
 22 23  2  0
 23 24  1  0
 24 25  1  0
 25 30  1  0
 25 26  2  0
 26 27  1  0
 26 28  1  0
 28 29  1  0
 29 30  2  0
 30 31  1  0
M  END
>  <SMILES>  (214) 
COc1cc2c(cc1-c1c(C)noc1C)ncc1[nH]c(=O)n([C@H](C)c3ccccn3)c12

>  <CollectionName>  (214) 
chembl

>  <LOG PLASMA PROTEIN BINDING (RAT) (% unbound)>  (214) 
0.5728716022

>  <Internal ID>  (214) 


>  <Source>  (214) 
AstraZeneca

$$$$
CHEMBL782
     RDKit          2D

 18 18  0  0  0  0  0  0  0  0999 V2000
    6.0813    6.4924    0.0000 C   0  0  0  0  0  0  0  0  0  0  0  0
    5.2138    5.9950    0.0000 C   0  0  0  0  0  0  0  0  0  0  0  0
    5.2109    4.9950    0.0000 C   0  0  0  0  0  0  0  0  0  0  0  0
    4.3434    4.4975    0.0000 C   0  0  0  0  0  0  0  0  0  0  0  0
    4.3404    3.4975    0.0000 N   0  0  0  0  0  0  0  0  0  0  0  0
    3.4729    3.0001    0.0000 C   0  0  0  0  0  0  0  0  0  0  0  0
    2.6084    3.5026    0.0000 O   0  0  0  0  0  0  0  0  0  0  0  0
    3.4700    2.0001    0.0000 N   0  0  0  0  0  0  0  0  0  0  0  0
    2.6025    1.5026    0.0000 S   0  0  0  0  0  0  0  0  0  0  0  0
    2.1051    2.3701    0.0000 O   0  0  0  0  0  0  0  0  0  0  0  0
    3.0999    0.6351    0.0000 O   0  0  0  0  0  0  0  0  0  0  0  0
    1.7350    1.0052    0.0000 C   0  0  0  0  0  0  0  0  0  0  0  0
    1.7350    0.0000    0.0000 C   0  0  0  0  0  0  0  0  0  0  0  0
    0.8675   -0.4975    0.0000 C   0  0  0  0  0  0  0  0  0  0  0  0
    0.0000    0.0000    0.0000 C   0  0  0  0  0  0  0  0  0  0  0  0
   -0.8653   -0.5013    0.0000 C   0  0  0  0  0  0  0  0  0  0  0  0
   -0.0000    1.0052    0.0000 C   0  0  0  0  0  0  0  0  0  0  0  0
    0.8675    1.5129    0.0000 C   0  0  0  0  0  0  0  0  0  0  0  0
  1  2  1  0
  2  3  1  0
  3  4  1  0
  4  5  1  0
  5  6  1  0
  6  7  2  0
  6  8  1  0
  8  9  1  0
  9 10  2  0
  9 11  2  0
  9 12  1  0
 12 18  2  0
 12 13  1  0
 13 14  2  0
 14 15  1  0
 15 16  1  0
 15 17  2  0
 17 18  1  0
M  END
>  <SMILES>  (215) 
CCCCNC(=O)NS(=O)(=O)c1ccc(C)cc1

>  <CollectionName>  (215) 
chembl

>  <LOG PLASMA PROTEIN BINDING (RAT) (% unbound)>  (215) 
0.35983548234

>  <Internal ID>  (215) 


>  <Source>  (215) 
AstraZeneca

$$$$
CHEMBL254497
     RDKit          2D

 40 43  0  0  1  0  0  0  0  0999 V2000
    6.7456   -5.6009    0.0000 C   0  0  0  0  0  0  0  0  0  0  0  0
    6.2512   -4.7316    0.0000 C   0  0  0  0  0  0  0  0  0  0  0  0
    7.1205   -4.2373    0.0000 C   0  0  0  0  0  0  0  0  0  0  0  0
    5.3820   -5.2259    0.0000 C   0  0  0  0  0  0  0  0  0  0  0  0
    5.7569   -3.8623    0.0000 O   0  0  0  0  0  0  0  0  0  0  0  0
    6.2626   -2.9996    0.0000 C   0  0  0  0  0  0  0  0  0  0  0  0
    7.2626   -3.0062    0.0000 O   0  0  0  0  0  0  0  0  0  0  0  0
    5.7683   -2.1303    0.0000 N   0  0  0  0  0  0  0  0  0  0  0  0
    6.2740   -1.2676    0.0000 C   0  0  0  0  0  0  0  0  0  0  0  0
    7.2740   -1.2742    0.0000 C   0  0  0  0  0  0  0  0  0  0  0  0
    7.7796   -0.4114    0.0000 C   0  0  0  0  0  0  0  0  0  0  0  0
    7.2866    0.4586    0.0000 C   0  0  0  0  0  0  0  0  0  0  0  0
    7.7885    1.3235    0.0000 C   0  0  0  0  0  0  0  0  0  0  0  0
    8.7937    1.3184    0.0000 C   0  0  0  0  0  0  0  0  0  0  0  0
    9.2969    0.4483    0.0000 C   0  0  0  0  0  0  0  0  0  0  0  0
    8.7848   -0.4166    0.0000 C   0  0  0  0  0  0  0  0  0  0  0  0
    9.2778   -1.2866    0.0000 C   0  0  0  0  0  0  0  0  0  0  0  0
   10.1478   -0.7936    0.0000 F   0  0  0  0  0  0  0  0  0  0  0  0
    8.4078   -1.7796    0.0000 F   0  0  0  0  0  0  0  0  0  0  0  0
    9.7708   -2.1566    0.0000 F   0  0  0  0  0  0  0  0  0  0  0  0
    5.7797   -0.3983    0.0000 C   0  0  0  0  0  0  0  0  0  0  0  0
    6.2853    0.4644    0.0000 O   0  0  0  0  0  0  0  0  0  0  0  0
    4.7797   -0.3917    0.0000 N   0  0  0  0  0  0  0  0  0  0  0  0
    4.2854    0.4775    0.0000 C   0  0  0  0  0  0  0  0  0  0  0  0
    3.2854    0.4841    0.0000 C   0  0  0  0  0  0  0  0  0  0  0  0
    2.6894   -0.3248    0.0000 N   0  0  0  0  0  0  0  0  0  0  0  0
    1.7361   -0.0079    0.0000 C   0  0  0  0  0  0  0  0  0  0  0  0
    0.8635   -0.5043    0.0000 C   0  0  0  0  0  0  0  0  0  0  0  0
    0.0000    0.0000    0.0000 C   0  0  0  0  0  0  0  0  0  0  0  0
    0.0051    1.0055    0.0000 C   0  0  0  0  0  0  0  0  0  0  0  0
    0.8736    1.5067    0.0000 N   0  0  0  0  0  0  0  0  0  0  0  0
    1.7426    0.9968    0.0000 C   0  0  0  0  0  0  0  0  0  0  0  0
    2.7001    1.3007    0.0000 N   0  0  0  0  0  0  0  0  0  0  0  0
    3.0154    2.2497    0.0000 C   0  0  0  0  0  0  0  0  0  0  0  0
    3.9949    2.4511    0.0000 C   0  0  0  0  0  0  0  0  0  0  0  0
    4.3091    3.4060    0.0000 C   0  0  0  0  0  0  0  0  0  0  0  0
    5.2886    3.6074    0.0000 C   0  0  0  0  0  0  0  0  0  0  0  0
    5.9572    2.8637    0.0000 C   0  0  0  0  0  0  0  0  0  0  0  0
    5.6430    1.9089    0.0000 C   0  0  0  0  0  0  0  0  0  0  0  0
    4.6603    1.6977    0.0000 C   0  0  0  0  0  0  0  0  0  0  0  0
  1  2  1  0
  2  3  1  0
  2  4  1  0
  2  5  1  0
  5  6  1  0
  6  7  2  0
  6  8  1  0
  8  9  1  0
  9 10  1  1
 10 11  1  0
 11 16  1  0
 11 12  2  0
 12 13  1  0
 13 14  2  0
 14 15  1  0
 15 16  2  0
 16 17  1  0
 17 18  1  0
 17 19  1  0
 17 20  1  0
  9 21  1  0
 21 22  2  0
 21 23  1  0
 23 24  1  0
 24 25  1  0
 25 33  1  0
 25 26  2  0
 26 27  1  0
 27 32  2  0
 27 28  1  0
 28 29  2  0
 29 30  1  0
 30 31  2  0
 31 32  1  0
 32 33  1  0
 33 34  1  0
 34 35  1  0
 35 40  1  0
 35 36  2  0
 36 37  1  0
 37 38  2  0
 38 39  1  0
 39 40  2  0
M  END
>  <SMILES>  (216) 
CC(C)(C)OC(=O)N[C@H](Cc1ccccc1C(F)(F)F)C(=O)NCc1nc2cccnc2n1Cc1ccccc1

>  <CollectionName>  (216) 
chembl

>  <LOG PLASMA PROTEIN BINDING (RAT) (% unbound)>  (216) 
-0.698970004336

>  <Internal ID>  (216) 


>  <Source>  (216) 
AstraZeneca

$$$$
CHEMBL594671
     RDKit          2D

 19 20  0  0  1  0  0  0  0  0999 V2000
    5.1193    2.1825    0.0000 C   0  0  0  0  0  0  0  0  0  0  0  0
    4.1678    1.8749    0.0000 C   0  0  0  0  0  0  0  0  0  0  0  0
    3.9585    0.8970    0.0000 C   0  0  0  0  0  0  0  0  0  0  0  0
    3.4256    2.5451    0.0000 C   0  0  0  0  0  0  0  0  0  0  0  0
    2.4741    2.2374    0.0000 C   0  0  0  0  0  0  0  0  0  0  0  0
    1.7319    2.9076    0.0000 O   0  0  0  0  0  0  0  0  0  0  0  0
    2.2648    1.2596    0.0000 N   0  0  0  0  0  0  0  0  0  0  0  0
    1.3133    0.9519    0.0000 C   0  0  0  0  0  0  0  0  0  0  0  0
    1.0015   -0.0000    0.0000 N   0  0  0  0  0  0  0  0  0  0  0  0
    0.0000    0.0000    0.0000 C   0  0  0  0  0  0  0  0  0  0  0  0
   -0.3065    0.9519    0.0000 C   0  0  0  0  0  0  0  0  0  0  0  0
    0.5008    1.5428    0.0000 S   0  0  0  0  0  0  0  0  0  0  0  0
    3.6349    3.5229    0.0000 C   0  0  0  0  0  0  0  0  0  0  0  0
    4.5860    3.8320    0.0000 C   0  0  0  0  0  0  0  0  0  0  0  0
    4.7996    4.8089    0.0000 C   0  0  0  0  0  0  0  0  0  0  0  0
    4.0545    5.4837    0.0000 C   0  0  0  0  0  0  0  0  0  0  0  0
    4.2681    6.4606    0.0000 Cl  0  0  0  0  0  0  0  0  0  0  0  0
    3.0958    5.1815    0.0000 C   0  0  0  0  0  0  0  0  0  0  0  0
    2.8898    4.1977    0.0000 C   0  0  0  0  0  0  0  0  0  0  0  0
  1  2  1  0
  2  3  1  0
  4  2  1  6
  4  5  1  0
  5  6  2  0
  5  7  1  0
  7  8  1  0
  8 12  1  0
  8  9  2  0
  9 10  1  0
 10 11  2  0
 11 12  1  0
  4 13  1  0
 13 19  1  0
 13 14  2  0
 14 15  1  0
 15 16  2  0
 16 17  1  0
 16 18  1  0
 18 19  2  0
M  END
>  <SMILES>  (217) 
CC(C)[C@H](C(=O)Nc1nccs1)c1ccc(Cl)cc1

>  <CollectionName>  (217) 
chembl

>  <LOG PLASMA PROTEIN BINDING (RAT) (% unbound)>  (217) 
0.0253058652648

>  <Internal ID>  (217) 


>  <Source>  (217) 
AstraZeneca

$$$$
CHEMBL726
     RDKit          2D

 30 33  0  0  0  0  0  0  0  0999 V2000
   -2.6200    6.4980    0.0000 O   0  0  0  0  0  0  0  0  0  0  0  0
   -1.7526    6.0003    0.0000 C   0  0  0  0  0  0  0  0  0  0  0  0
   -1.7500    5.0003    0.0000 C   0  0  0  0  0  0  0  0  0  0  0  0
   -0.8826    4.5026    0.0000 N   0  0  0  0  0  0  0  0  0  0  0  0
   -0.8740    3.4975    0.0000 C   0  0  0  0  0  0  0  0  0  0  0  0
   -0.0021    2.9972    0.0000 C   0  0  0  0  0  0  0  0  0  0  0  0
    0.8611    3.5021    0.0000 N   0  0  0  0  0  0  0  0  0  0  0  0
    1.7285    3.0044    0.0000 C   0  0  0  0  0  0  0  0  0  0  0  0
    1.7312    2.0044    0.0000 C   0  0  0  0  0  0  0  0  0  0  0  0
    2.5985    1.5067    0.0000 C   0  0  0  0  0  0  0  0  0  0  0  0
    2.6012    0.5067    0.0000 N   0  0  0  0  0  0  0  0  0  0  0  0
    1.7358   -0.0000    0.0000 C   0  0  0  0  0  0  0  0  0  0  0  0
    0.8679    0.5079    0.0000 C   0  0  0  0  0  0  0  0  0  0  0  0
    0.0000    0.0000    0.0000 C   0  0  0  0  0  0  0  0  0  0  0  0
    0.0000   -1.0057    0.0000 C   0  0  0  0  0  0  0  0  0  0  0  0
    0.8679   -1.5033    0.0000 C   0  0  0  0  0  0  0  0  0  0  0  0
    1.7371   -1.0057    0.0000 C   0  0  0  0  0  0  0  0  0  0  0  0
    2.6038   -1.5046    0.0000 S   0  0  0  0  0  0  0  0  0  0  0  0
    3.4738   -1.0059    0.0000 C   0  0  0  0  0  0  0  0  0  0  0  0
    4.3422   -1.5068    0.0000 C   0  0  0  0  0  0  0  0  0  0  0  0
    5.2158   -1.0053    0.0000 C   0  0  0  0  0  0  0  0  0  0  0  0
    5.2154    0.0028    0.0000 C   0  0  0  0  0  0  0  0  0  0  0  0
    4.3415    0.5094    0.0000 C   0  0  0  0  0  0  0  0  0  0  0  0
    3.4735    0.0022    0.0000 C   0  0  0  0  0  0  0  0  0  0  0  0
    6.0818    0.5022    0.0000 C   0  0  0  0  0  0  0  0  0  0  0  0
    5.5824    1.3686    0.0000 F   0  0  0  0  0  0  0  0  0  0  0  0
    6.5812   -0.3642    0.0000 F   0  0  0  0  0  0  0  0  0  0  0  0
    6.9481    1.0016    0.0000 F   0  0  0  0  0  0  0  0  0  0  0  0
    0.8614    4.5021    0.0000 C   0  0  0  0  0  0  0  0  0  0  0  0
   -0.0105    5.0024    0.0000 C   0  0  0  0  0  0  0  0  0  0  0  0
  1  2  1  0
  2  3  1  0
  3  4  1  0
  4 30  1  0
  4  5  1  0
  5  6  1  0
  6  7  1  0
  7  8  1  0
  8  9  1  0
  9 10  1  0
 10 11  1  0
 11 24  1  0
 11 12  1  0
 12 17  1  0
 12 13  2  0
 13 14  1  0
 14 15  2  0
 15 16  1  0
 16 17  2  0
 17 18  1  0
 18 19  1  0
 19 24  2  0
 19 20  1  0
 20 21  2  0
 21 22  1  0
 22 23  2  0
 23 24  1  0
 22 25  1  0
 25 26  1  0
 25 27  1  0
 25 28  1  0
  7 29  1  0
 29 30  1  0
M  END
>  <SMILES>  (218) 
OCCN1CCN(CCCN2c3ccccc3Sc3ccc(C(F)(F)F)cc32)CC1

>  <CollectionName>  (218) 
chembl

>  <LOG PLASMA PROTEIN BINDING (RAT) (% unbound)>  (218) 
0.0755469613925

>  <Internal ID>  (218) 


>  <Source>  (218) 
AstraZeneca

$$$$
CHEMBL30054
     RDKit          2D

 31 33  0  0  0  0  0  0  0  0999 V2000
   10.4161    4.9846    0.0000 F   0  0  0  0  0  0  0  0  0  0  0  0
   10.4161    3.9846    0.0000 C   0  0  0  0  0  0  0  0  0  0  0  0
   11.2814    3.4833    0.0000 C   0  0  0  0  0  0  0  0  0  0  0  0
   11.2857    2.4833    0.0000 C   0  0  0  0  0  0  0  0  0  0  0  0
   10.4159    1.9794    0.0000 C   0  0  0  0  0  0  0  0  0  0  0  0
    9.5418    2.4756    0.0000 N   0  0  0  0  0  0  0  0  0  0  0  0
    9.5463    3.4807    0.0000 C   0  0  0  0  0  0  0  0  0  0  0  0
    8.6810    3.9820    0.0000 C   0  0  0  0  0  0  0  0  0  0  0  0
    7.8142    3.4833    0.0000 N   0  0  0  0  0  0  0  0  0  0  0  0
    6.9489    3.9846    0.0000 C   0  0  0  0  0  0  0  0  0  0  0  0
    6.9504    4.9846    0.0000 O   0  0  0  0  0  0  0  0  0  0  0  0
    6.0822    3.4859    0.0000 C   0  0  0  0  0  0  0  0  0  0  0  0
    5.2169    3.9872    0.0000 N   0  0  0  0  0  0  0  0  0  0  0  0
    5.2125    4.9924    0.0000 C   0  0  0  0  0  0  0  0  0  0  0  0
    4.3427    5.4963    0.0000 C   0  0  0  0  0  0  0  0  0  0  0  0
    3.4773    4.9950    0.0000 N   0  0  0  0  0  0  0  0  0  0  0  0
    3.4729    3.9950    0.0000 C   0  0  0  0  0  0  0  0  0  0  0  0
    2.6054    3.4976    0.0000 N   0  0  0  0  0  0  0  0  0  0  0  0
    2.6025    2.4976    0.0000 C   0  0  0  0  0  0  0  0  0  0  0  0
    1.7350    2.0001    0.0000 C   0  0  0  0  0  0  0  0  0  0  0  0
    2.2324    1.1326    0.0000 F   0  0  0  0  0  0  0  0  0  0  0  0
    1.2376    2.8676    0.0000 F   0  0  0  0  0  0  0  0  0  0  0  0
    0.8675    1.5027    0.0000 C   0  0  0  0  0  0  0  0  0  0  0  0
    0.8675    0.4975    0.0000 C   0  0  0  0  0  0  0  0  0  0  0  0
    0.0000    0.0000    0.0000 C   0  0  0  0  0  0  0  0  0  0  0  0
   -0.8675    0.4975    0.0000 C   0  0  0  0  0  0  0  0  0  0  0  0
   -0.8675    1.5027    0.0000 C   0  0  0  0  0  0  0  0  0  0  0  0
   -0.0000    2.0104    0.0000 N   0  0  0  0  0  0  0  0  0  0  0  0
    4.3427    3.4911    0.0000 C   0  0  0  0  0  0  0  0  0  0  0  0
    4.3383    2.4911    0.0000 O   0  0  0  0  0  0  0  0  0  0  0  0
    6.0778    5.4936    0.0000 Cl  0  0  0  0  0  0  0  0  0  0  0  0
  1  2  1  0
  2  7  2  0
  2  3  1  0
  3  4  2  0
  4  5  1  0
  5  6  2  0
  6  7  1  0
  7  8  1  0
  8  9  1  0
  9 10  1  0
 10 11  2  0
 10 12  1  0
 12 13  1  0
 13 29  1  0
 13 14  1  0
 14 15  2  0
 15 16  1  0
 16 17  2  0
 17 18  1  0
 18 19  1  0
 19 20  1  0
 20 21  1  0
 20 22  1  0
 20 23  1  0
 23 28  1  0
 23 24  2  0
 24 25  1  0
 25 26  2  0
 26 27  1  0
 27 28  2  0
 17 29  1  0
 29 30  2  0
 14 31  1  0
M  END
>  <SMILES>  (219) 
O=C(Cn1c(Cl)cnc(NCC(F)(F)c2ccccn2)c1=O)NCc1ncccc1F

>  <CollectionName>  (219) 
chembl

>  <LOG PLASMA PROTEIN BINDING (RAT) (% unbound)>  (219) 
1.31868926995

>  <Internal ID>  (219) 


>  <Source>  (219) 
AstraZeneca

$$$$
CHEMBL229430
     RDKit          2D

 30 33  0  0  0  0  0  0  0  0999 V2000
    5.7857    1.3685    0.0000 C   0  0  0  0  0  0  0  0  0  0  0  0
    4.7857    1.3684    0.0000 C   0  0  0  0  0  0  0  0  0  0  0  0
    4.2857    2.2344    0.0000 O   0  0  0  0  0  0  0  0  0  0  0  0
    4.2858    0.5024    0.0000 N   0  0  0  0  0  0  0  0  0  0  0  0
    3.2858    0.5023    0.0000 C   0  0  0  0  0  0  0  0  0  0  0  0
    2.6938   -0.3125    0.0000 N   0  0  0  0  0  0  0  0  0  0  0  0
    1.7360   -0.0012    0.0000 C   0  0  0  0  0  0  0  0  0  0  0  0
    0.8680   -0.4978    0.0000 C   0  0  0  0  0  0  0  0  0  0  0  0
    0.8675   -1.4978    0.0000 O   0  0  0  0  0  0  0  0  0  0  0  0
    0.0012   -1.9973    0.0000 C   0  0  0  0  0  0  0  0  0  0  0  0
   -0.8631   -1.4944    0.0000 C   0  0  0  0  0  0  0  0  0  0  0  0
   -1.7339   -1.9965    0.0000 C   0  0  0  0  0  0  0  0  0  0  0  0
   -1.7404   -3.0016    0.0000 N   0  0  0  0  0  0  0  0  0  0  0  0
   -0.8672   -3.4995    0.0000 C   0  0  0  0  0  0  0  0  0  0  0  0
    0.0036   -2.9974    0.0000 N   0  0  0  0  0  0  0  0  0  0  0  0
   -2.5982   -1.4935    0.0000 C   0  0  0  0  0  0  0  0  0  0  0  0
   -3.4667   -1.9893    0.0000 C   0  0  0  0  0  0  0  0  0  0  0  0
   -4.3332   -1.4900    0.0000 C   0  0  0  0  0  0  0  0  0  0  0  0
   -4.3312   -0.4848    0.0000 C   0  0  0  0  0  0  0  0  0  0  0  0
   -3.4627    0.0211    0.0000 C   0  0  0  0  0  0  0  0  0  0  0  0
   -2.5962   -0.4883    0.0000 C   0  0  0  0  0  0  0  0  0  0  0  0
   -5.1977    0.0144    0.0000 C   0  0  0  0  0  0  0  0  0  0  0  0
   -4.6985    0.8809    0.0000 F   0  0  0  0  0  0  0  0  0  0  0  0
   -5.6969   -0.8521    0.0000 F   0  0  0  0  0  0  0  0  0  0  0  0
   -6.0642    0.5136    0.0000 F   0  0  0  0  0  0  0  0  0  0  0  0
    0.0000    0.0000    0.0000 C   0  0  0  0  0  0  0  0  0  0  0  0
    0.0000    1.0058    0.0000 C   0  0  0  0  0  0  0  0  0  0  0  0
    0.8680    1.5138    0.0000 C   0  0  0  0  0  0  0  0  0  0  0  0
    1.7360    1.0058    0.0000 C   0  0  0  0  0  0  0  0  0  0  0  0
    2.6938    1.3169    0.0000 S   0  0  0  0  0  0  0  0  0  0  0  0
  1  2  1  0
  2  3  2  0
  2  4  1  0
  4  5  1  0
  5 30  1  0
  5  6  2  0
  6  7  1  0
  7 29  2  0
  7  8  1  0
  8  9  1  0
  9 10  1  0
 10 15  1  0
 10 11  2  0
 11 12  1  0
 12 13  2  0
 13 14  1  0
 14 15  2  0
 12 16  1  0
 16 21  1  0
 16 17  2  0
 17 18  1  0
 18 19  2  0
 19 20  1  0
 20 21  2  0
 19 22  1  0
 22 23  1  0
 22 24  1  0
 22 25  1  0
  8 26  2  0
 26 27  1  0
 27 28  2  0
 28 29  1  0
 29 30  1  0
M  END
>  <SMILES>  (220) 
CC(=O)Nc1nc2c(Oc3cc(-c4ccc(C(F)(F)F)cc4)ncn3)cccc2s1

>  <CollectionName>  (220) 
chembl

>  <LOG PLASMA PROTEIN BINDING (RAT) (% unbound)>  (220) 
-0.698970004336

>  <Internal ID>  (220) 


>  <Source>  (220) 
AstraZeneca

$$$$
CHEMBL1939560
     RDKit          2D

 44 48  0  0  1  0  0  0  0  0999 V2000
    5.2069    0.0020    0.0000 C   0  0  0  0  0  0  0  0  0  0  0  0
    4.3408   -0.4979    0.0000 C   0  0  0  0  0  0  0  0  0  0  0  0
    4.3406   -1.4979    0.0000 N   0  0  0  0  0  0  0  0  0  0  0  0
    5.2066   -1.9980    0.0000 C   0  0  0  0  0  0  0  0  0  0  0  0
    6.0727   -1.4981    0.0000 C   0  0  0  0  0  0  0  0  0  0  0  0
    6.9372   -2.0007    0.0000 C   0  0  0  0  0  0  0  0  0  0  0  0
    7.8078   -1.4982    0.0000 C   0  0  0  0  0  0  0  0  0  0  0  0
    7.8139   -0.4931    0.0000 S   0  0  0  0  0  0  0  0  0  0  0  0
    8.7983   -0.6688    0.0000 O   0  0  0  0  0  0  0  0  0  0  0  0
    8.1542    0.4472    0.0000 O   0  0  0  0  0  0  0  0  0  0  0  0
    6.9405    0.0044    0.0000 C   0  0  0  0  0  0  0  0  0  0  0  0
    6.0699   -0.4981    0.0000 C   0  0  0  0  0  0  0  0  0  0  0  0
    3.4746   -1.9978    0.0000 C   0  0  0  0  0  0  0  0  0  0  0  0
    3.4744   -2.9978    0.0000 O   0  0  0  0  0  0  0  0  0  0  0  0
    2.6086   -1.4977    0.0000 C   0  0  0  0  0  0  0  0  0  0  0  0
    1.7425   -1.9976    0.0000 C   0  0  0  0  0  0  0  0  0  0  0  0
    1.7454   -3.0028    0.0000 C   0  0  0  0  0  0  0  0  0  0  0  0
    0.8793   -3.5027    0.0000 C   0  0  0  0  0  0  0  0  0  0  0  0
    0.0104   -3.0077    0.0000 C   0  0  0  0  0  0  0  0  0  0  0  0
    0.0075   -2.0025    0.0000 C   0  0  0  0  0  0  0  0  0  0  0  0
   -0.8614   -1.5075    0.0000 F   0  0  0  0  0  0  0  0  0  0  0  0
    0.8736   -1.4924    0.0000 C   0  0  0  0  0  0  0  0  0  0  0  0
   -0.8535   -3.5114    0.0000 C   0  0  0  0  0  0  0  0  0  0  0  0
   -1.3572   -2.6475    0.0000 F   0  0  0  0  0  0  0  0  0  0  0  0
   -0.3498   -4.3753    0.0000 F   0  0  0  0  0  0  0  0  0  0  0  0
   -1.7174   -4.0151    0.0000 F   0  0  0  0  0  0  0  0  0  0  0  0
    3.4748    0.0022    0.0000 C   0  0  0  0  0  0  0  0  0  0  0  0
    2.6038   -0.4989    0.0000 N   0  0  0  0  0  0  0  0  0  0  0  0
    1.7371   -0.0000    0.0000 C   0  0  0  0  0  0  0  0  0  0  0  0
    0.8679   -0.4978    0.0000 N   0  0  0  0  0  0  0  0  0  0  0  0
    0.0000    0.0000    0.0000 C   0  0  0  0  0  0  0  0  0  0  0  0
    0.0000    1.0057    0.0000 C   0  0  0  0  0  0  0  0  0  0  0  0
    0.8679    1.5135    0.0000 C   0  0  0  0  0  0  0  0  0  0  0  0
    1.7358    1.0057    0.0000 C   0  0  0  0  0  0  0  0  0  0  0  0
    2.6012    1.5124    0.0000 C   0  0  0  0  0  0  0  0  0  0  0  0
    2.5985    2.5124    0.0000 O   0  0  0  0  0  0  0  0  0  0  0  0
    3.4735    1.0079    0.0000 N   0  0  0  0  0  0  0  0  0  0  0  0
    4.3394    1.5081    0.0000 C   0  0  0  0  0  0  0  0  0  0  0  0
    4.3406    2.5082    0.0000 C   0  0  0  0  0  0  0  0  0  0  0  0
    5.2043    3.0122    0.0000 C   0  0  0  0  0  0  0  0  0  0  0  0
    6.0757    2.5111    0.0000 C   0  0  0  0  0  0  0  0  0  0  0  0
    6.9394    3.0151    0.0000 Cl  0  0  0  0  0  0  0  0  0  0  0  0
    6.0834    1.5060    0.0000 C   0  0  0  0  0  0  0  0  0  0  0  0
    5.2108    1.0070    0.0000 C   0  0  0  0  0  0  0  0  0  0  0  0
  2  1  1  1
  2  3  1  0
  3  4  1  0
  4  5  1  0
  5 12  1  0
  5  6  1  0
  6  7  1  0
  7  8  1  0
  8  9  2  0
  8 10  2  0
  8 11  1  0
 11 12  1  0
  3 13  1  0
 13 14  2  0
 13 15  1  0
 15 16  1  0
 16 22  1  0
 16 17  2  0
 17 18  1  0
 18 19  2  0
 19 20  1  0
 20 21  1  0
 20 22  2  0
 19 23  1  0
 23 24  1  0
 23 25  1  0
 23 26  1  0
  2 27  1  0
 27 37  1  0
 27 28  2  0
 28 29  1  0
 29 34  2  0
 29 30  1  0
 30 31  2  0
 31 32  1  0
 32 33  2  0
 33 34  1  0
 34 35  1  0
 35 36  2  0
 35 37  1  0
 37 38  1  0
 38 44  1  0
 38 39  2  0
 39 40  1  0
 40 41  2  0
 41 42  1  0
 41 43  1  0
 43 44  2  0
M  END
>  <SMILES>  (221) 
C[C@H](c1nc2ncccc2c(=O)n1-c1ccc(Cl)cc1)N(CC1CCS(=O)(=O)CC1)C(=O)Cc1ccc(C(F)(F)F)c(F)c1

>  <CollectionName>  (221) 
chembl

>  <LOG PLASMA PROTEIN BINDING (RAT) (% unbound)>  (221) 
1.00389116624

>  <Internal ID>  (221) 


>  <Source>  (221) 
AstraZeneca

$$$$
CHEMBL1957460
     RDKit          2D

 27 30  0  0  0  0  0  0  0  0999 V2000
    6.0761    2.4994    0.0000 C   0  0  0  0  0  0  0  0  0  0  0  0
    5.2120    3.0028    0.0000 C   0  0  0  0  0  0  0  0  0  0  0  0
    5.2189    4.0079    0.0000 N   0  0  0  0  0  0  0  0  0  0  0  0
    4.3459    4.5061    0.0000 C   0  0  0  0  0  0  0  0  0  0  0  0
    3.4749    4.0044    0.0000 C   0  0  0  0  0  0  0  0  0  0  0  0
    3.4769    3.0043    0.0000 C   0  0  0  0  0  0  0  0  0  0  0  0
    4.3410    2.5010    0.0000 C   0  0  0  0  0  0  0  0  0  0  0  0
    4.3386    1.5010    0.0000 Cl  0  0  0  0  0  0  0  0  0  0  0  0
    2.6104    2.5051    0.0000 C   0  0  0  0  0  0  0  0  0  0  0  0
    1.7441    3.0047    0.0000 C   0  0  0  0  0  0  0  0  0  0  0  0
    0.8754    2.5093    0.0000 C   0  0  0  0  0  0  0  0  0  0  0  0
    0.8730    1.5041    0.0000 C   0  0  0  0  0  0  0  0  0  0  0  0
    1.7393    0.9943    0.0000 C   0  0  0  0  0  0  0  0  0  0  0  0
    2.6080    1.4999    0.0000 C   0  0  0  0  0  0  0  0  0  0  0  0
    0.0043    1.0087    0.0000 C   0  0  0  0  0  0  0  0  0  0  0  0
   -0.8680    1.5198    0.0000 N   0  0  0  0  0  0  0  0  0  0  0  0
   -1.7391    1.0162    0.0000 C   0  0  0  0  0  0  0  0  0  0  0  0
   -2.6098    1.5258    0.0000 C   0  0  0  0  0  0  0  0  0  0  0  0
   -3.4805    1.0162    0.0000 C   0  0  0  0  0  0  0  0  0  0  0  0
   -3.4805    0.0073    0.0000 N   0  0  0  0  0  0  0  0  0  0  0  0
   -2.6098   -0.4920    0.0000 C   0  0  0  0  0  0  0  0  0  0  0  0
   -1.7434    0.0073    0.0000 C   0  0  0  0  0  0  0  0  0  0  0  0
   -0.8766   -0.4980    0.0000 C   0  0  0  0  0  0  0  0  0  0  0  0
   -0.8822   -1.4980    0.0000 O   0  0  0  0  0  0  0  0  0  0  0  0
    0.0000    0.0000    0.0000 C   0  0  0  0  0  0  0  0  0  0  0  0
    0.8632   -0.5049    0.0000 C   0  0  0  0  0  0  0  0  0  0  0  0
    1.7264   -1.0097    0.0000 N   0  0  0  0  0  0  0  0  0  0  0  0
  1  2  1  0
  2  7  2  0
  2  3  1  0
  3  4  2  0
  4  5  1  0
  5  6  2  0
  6  7  1  0
  7  8  1  0
  6  9  1  0
  9 14  1  0
  9 10  2  0
 10 11  1  0
 11 12  2  0
 12 13  1  0
 13 14  2  0
 12 15  1  0
 15 25  1  0
 15 16  2  0
 16 17  1  0
 17 22  2  0
 17 18  1  0
 18 19  2  0
 19 20  1  0
 20 21  2  0
 21 22  1  0
 22 23  1  0
 23 24  1  0
 23 25  2  0
 25 26  1  0
 26 27  3  0
M  END
>  <SMILES>  (222) 
Cc1nccc(-c2ccc(-c3nc4ccncc4c(O)c3C#N)cc2)c1Cl

>  <CollectionName>  (222) 
chembl

>  <LOG PLASMA PROTEIN BINDING (RAT) (% unbound)>  (222) 
-0.853871964322

>  <Internal ID>  (222) 


>  <Source>  (222) 
AstraZeneca

$$$$
CHEMBL163
     RDKit          2D

 50 53  0  0  1  0  0  0  0  0999 V2000
   -9.8184    4.0379    0.0000 C   0  0  0  0  0  0  0  0  0  0  0  0
   -8.8672    3.7293    0.0000 C   0  0  0  0  0  0  0  0  0  0  0  0
   -8.1244    4.3988    0.0000 C   0  0  0  0  0  0  0  0  0  0  0  0
   -8.6589    2.7513    0.0000 C   0  0  0  0  0  0  0  0  0  0  0  0
   -9.4017    2.0818    0.0000 N   0  0  0  0  0  0  0  0  0  0  0  0
   -9.1934    1.1037    0.0000 C   0  0  0  0  0  0  0  0  0  0  0  0
   -8.2422    0.7951    0.0000 O   0  0  0  0  0  0  0  0  0  0  0  0
   -9.9362    0.4343    0.0000 N   0  0  0  0  0  0  0  0  0  0  0  0
  -10.8874    0.7429    0.0000 C   0  0  0  0  0  0  0  0  0  0  0  0
   -9.7279   -0.5438    0.0000 C   0  0  0  0  0  0  0  0  0  0  0  0
  -10.4708   -1.2132    0.0000 C   0  0  0  0  0  0  0  0  0  0  0  0
  -10.3671   -2.2079    0.0000 C   0  0  0  0  0  0  0  0  0  0  0  0
  -11.2789   -2.6196    0.0000 S   0  0  0  0  0  0  0  0  0  0  0  0
  -11.9521   -1.8739    0.0000 C   0  0  0  0  0  0  0  0  0  0  0  0
  -11.4507   -1.0067    0.0000 N   0  0  0  0  0  0  0  0  0  0  0  0
  -12.9466   -1.9787    0.0000 C   0  0  0  0  0  0  0  0  0  0  0  0
  -13.3530   -2.8924    0.0000 C   0  0  0  0  0  0  0  0  0  0  0  0
  -13.5347   -1.1699    0.0000 C   0  0  0  0  0  0  0  0  0  0  0  0
   -7.7077    2.4427    0.0000 C   0  0  0  0  0  0  0  0  0  0  0  0
   -7.4994    1.4646    0.0000 O   0  0  0  0  0  0  0  0  0  0  0  0
   -6.9648    3.1121    0.0000 N   0  0  0  0  0  0  0  0  0  0  0  0
   -6.0136    2.8035    0.0000 C   0  0  0  0  0  0  0  0  0  0  0  0
   -5.8053    1.8255    0.0000 C   0  0  0  0  0  0  0  0  0  0  0  0
   -4.8541    1.5169    0.0000 C   0  0  0  0  0  0  0  0  0  0  0  0
   -4.1113    2.1863    0.0000 O   0  0  0  0  0  0  0  0  0  0  0  0
   -4.6458    0.5388    0.0000 C   0  0  0  0  0  0  0  0  0  0  0  0
   -5.3886   -0.1307    0.0000 C   0  0  0  0  0  0  0  0  0  0  0  0
   -5.1803   -1.1087    0.0000 C   0  0  0  0  0  0  0  0  0  0  0  0
   -5.9290   -1.7794    0.0000 C   0  0  0  0  0  0  0  0  0  0  0  0
   -5.7207   -2.7575    0.0000 C   0  0  0  0  0  0  0  0  0  0  0  0
   -4.7713   -3.0717    0.0000 C   0  0  0  0  0  0  0  0  0  0  0  0
   -4.0226   -2.4010    0.0000 C   0  0  0  0  0  0  0  0  0  0  0  0
   -4.2233   -1.4161    0.0000 C   0  0  0  0  0  0  0  0  0  0  0  0
   -3.6946    0.2302    0.0000 N   0  0  0  0  0  0  0  0  0  0  0  0
   -2.9517    0.8996    0.0000 C   0  0  0  0  0  0  0  0  0  0  0  0
   -3.1601    1.8777    0.0000 O   0  0  0  0  0  0  0  0  0  0  0  0
   -2.0005    0.5910    0.0000 O   0  0  0  0  0  0  0  0  0  0  0  0
   -1.2577    1.2605    0.0000 C   0  0  0  0  0  0  0  0  0  0  0  0
   -0.3065    0.9519    0.0000 C   0  0  0  0  0  0  0  0  0  0  0  0
    0.0000    0.0000    0.0000 C   0  0  0  0  0  0  0  0  0  0  0  0
    1.0015   -0.0000    0.0000 N   0  0  0  0  0  0  0  0  0  0  0  0
    1.3133    0.9519    0.0000 C   0  0  0  0  0  0  0  0  0  0  0  0
    0.5008    1.5428    0.0000 S   0  0  0  0  0  0  0  0  0  0  0  0
   -5.2708    3.4730    0.0000 C   0  0  0  0  0  0  0  0  0  0  0  0
   -5.4791    4.4510    0.0000 C   0  0  0  0  0  0  0  0  0  0  0  0
   -4.7304    5.1218    0.0000 C   0  0  0  0  0  0  0  0  0  0  0  0
   -4.9387    6.0999    0.0000 C   0  0  0  0  0  0  0  0  0  0  0  0
   -5.8881    6.4140    0.0000 C   0  0  0  0  0  0  0  0  0  0  0  0
   -6.6368    5.7433    0.0000 C   0  0  0  0  0  0  0  0  0  0  0  0
   -6.4361    4.7584    0.0000 C   0  0  0  0  0  0  0  0  0  0  0  0
  1  2  1  0
  2  3  1  0
  4  2  1  0
  4  5  1  1
  5  6  1  0
  6  7  2  0
  6  8  1  0
  8  9  1  0
  8 10  1  0
 10 11  1  0
 11 15  1  0
 11 12  2  0
 12 13  1  0
 13 14  1  0
 14 15  2  0
 14 16  1  0
 16 17  1  0
 16 18  1  0
  4 19  1  0
 19 20  2  0
 19 21  1  0
 21 22  1  0
 22 23  1  1
 23 24  1  0
 24 25  1  6
 24 26  1  0
 26 27  1  1
 27 28  1  0
 28 33  1  0
 28 29  2  0
 29 30  1  0
 30 31  2  0
 31 32  1  0
 32 33  2  0
 26 34  1  0
 34 35  1  0
 35 36  2  0
 35 37  1  0
 37 38  1  0
 38 39  1  0
 39 43  1  0
 39 40  2  0
 40 41  1  0
 41 42  2  0
 42 43  1  0
 22 44  1  0
 44 45  1  0
 45 50  1  0
 45 46  2  0
 46 47  1  0
 47 48  2  0
 48 49  1  0
 49 50  2  0
M  END
>  <SMILES>  (223) 
CC(C)c1nc(CN(C)C(=O)N[C@H](C(=O)N[C@@H](Cc2ccccc2)C[C@H](O)[C@H](Cc2ccccc2)NC(=O)OCc2cncs2)C(C)C)cs1

>  <CollectionName>  (223) 
chembl

>  <LOG PLASMA PROTEIN BINDING (RAT) (% unbound)>  (223) 
0.515873843712

>  <Internal ID>  (223) 


>  <Source>  (223) 
AstraZeneca

$$$$
CHEMBL207881
     RDKit          2D

 26 28  0  0  0  0  0  0  0  0999 V2000
   10.3921    7.0512    0.0000 O   0  0  0  0  0  0  0  0  0  0  0  0
    9.5225    7.5448    0.0000 C   0  0  0  0  0  0  0  0  0  0  0  0
    9.5151    8.5448    0.0000 O   0  0  0  0  0  0  0  0  0  0  0  0
    8.6601    7.0384    0.0000 C   0  0  0  0  0  0  0  0  0  0  0  0
    7.7905    7.5321    0.0000 C   0  0  0  0  0  0  0  0  0  0  0  0
    6.9281    7.0257    0.0000 C   0  0  0  0  0  0  0  0  0  0  0  0
    6.0577    7.5181    0.0000 C   0  0  0  0  0  0  0  0  0  0  0  0
    5.1932    7.0155    0.0000 C   0  0  0  0  0  0  0  0  0  0  0  0
    5.1991    6.0103    0.0000 C   0  0  0  0  0  0  0  0  0  0  0  0
    4.3345    5.5077    0.0000 N   0  0  0  0  0  0  0  0  0  0  0  0
    4.3375    4.5077    0.0000 C   0  0  0  0  0  0  0  0  0  0  0  0
    3.4729    4.0052    0.0000 C   0  0  0  0  0  0  0  0  0  0  0  0
    2.6024    4.5078    0.0000 C   0  0  0  0  0  0  0  0  0  0  0  0
    1.7378    4.0053    0.0000 C   0  0  0  0  0  0  0  0  0  0  0  0
    1.7349    3.0052    0.0000 C   0  0  0  0  0  0  0  0  0  0  0  0
    2.6054    2.5026    0.0000 C   0  0  0  0  0  0  0  0  0  0  0  0
    2.6025    1.5026    0.0000 O   0  0  0  0  0  0  0  0  0  0  0  0
    1.7350    1.0052    0.0000 C   0  0  0  0  0  0  0  0  0  0  0  0
    1.7350   -0.0000    0.0000 C   0  0  0  0  0  0  0  0  0  0  0  0
    0.8675   -0.4975    0.0000 C   0  0  0  0  0  0  0  0  0  0  0  0
    0.0000    0.0000    0.0000 C   0  0  0  0  0  0  0  0  0  0  0  0
    0.0000    1.0052    0.0000 C   0  0  0  0  0  0  0  0  0  0  0  0
    0.8675    1.5129    0.0000 C   0  0  0  0  0  0  0  0  0  0  0  0
    3.4789    3.0001    0.0000 C   0  0  0  0  0  0  0  0  0  0  0  0
    6.0696    5.5077    0.0000 C   0  0  0  0  0  0  0  0  0  0  0  0
    6.9341    6.0205    0.0000 C   0  0  0  0  0  0  0  0  0  0  0  0
  1  2  1  0
  2  3  2  0
  2  4  1  0
  4  5  1  0
  5  6  1  0
  6 26  2  0
  6  7  1  0
  7  8  2  0
  8  9  1  0
  9 10  1  0
 10 11  1  0
 11 12  1  0
 12 24  1  0
 12 13  2  0
 13 14  1  0
 14 15  2  0
 15 16  1  0
 16 17  1  0
 17 18  1  0
 18 23  1  0
 18 19  2  0
 19 20  1  0
 20 21  2  0
 21 22  1  0
 22 23  2  0
 16 24  2  0
  9 25  2  0
 25 26  1  0
M  END
>  <SMILES>  (224) 
O=C(O)CCc1ccc(NCc2cccc(Oc3ccccc3)c2)cc1

>  <CollectionName>  (224) 
chembl

>  <LOG PLASMA PROTEIN BINDING (RAT) (% unbound)>  (224) 
-0.283996656365

>  <Internal ID>  (224) 


>  <Source>  (224) 
AstraZeneca

$$$$
CHEMBL208825
     RDKit          2D

 28 28  0  0  1  0  0  0  0  0999 V2000
    2.7620   -2.4292    0.0000 C   0  0  0  0  0  0  0  0  0  0  0  0
    1.7673   -2.5325    0.0000 C   0  0  0  0  0  0  0  0  0  0  0  0
    1.3595   -3.4456    0.0000 C   0  0  0  0  0  0  0  0  0  0  0  0
    1.9463   -4.2553    0.0000 C   0  0  0  0  0  0  0  0  0  0  0  0
    2.9410   -4.1519    0.0000 O   0  0  0  0  0  0  0  0  0  0  0  0
    1.5385   -5.1683    0.0000 O   0  0  0  0  0  0  0  0  0  0  0  0
    2.1253   -5.9780    0.0000 C   0  0  0  0  0  0  0  0  0  0  0  0
    2.7121   -6.7878    0.0000 C   0  0  0  0  0  0  0  0  0  0  0  0
    1.3156   -6.5649    0.0000 C   0  0  0  0  0  0  0  0  0  0  0  0
    2.9350   -5.3912    0.0000 C   0  0  0  0  0  0  0  0  0  0  0  0
    1.1805   -1.7228    0.0000 N   0  0  0  0  0  0  0  0  0  0  0  0
    1.5883   -0.8097    0.0000 C   0  0  0  0  0  0  0  0  0  0  0  0
    2.5830   -0.7064    0.0000 O   0  0  0  0  0  0  0  0  0  0  0  0
    1.0015   -0.0000    0.0000 C   0  0  0  0  0  0  0  0  0  0  0  0
    1.3133    0.9519    0.0000 N   0  0  0  0  0  0  0  0  0  0  0  0
    0.5008    1.5428    0.0000 O   0  0  0  0  0  0  0  0  0  0  0  0
   -0.3065    0.9519    0.0000 C   0  0  0  0  0  0  0  0  0  0  0  0
    0.0000    0.0000    0.0000 C   0  0  0  0  0  0  0  0  0  0  0  0
   -1.9711    1.4920    0.0000 C   0  0  0  0  0  0  0  0  0  0  0  0
   -2.9223    1.8006    0.0000 O   0  0  0  0  0  0  0  0  0  0  0  0
   -2.2797    0.5408    0.0000 C   0  0  0  0  0  0  0  0  0  0  0  0
   -1.3285    0.2322    0.0000 F   0  0  0  0  0  0  0  0  0  0  0  0
   -3.2309    0.8494    0.0000 F   0  0  0  0  0  0  0  0  0  0  0  0
   -2.5883   -0.4104    0.0000 F   0  0  0  0  0  0  0  0  0  0  0  0
   -1.6625    2.4431    0.0000 C   0  0  0  0  0  0  0  0  0  0  0  0
   -2.6137    2.7517    0.0000 F   0  0  0  0  0  0  0  0  0  0  0  0
   -0.7113    2.1345    0.0000 F   0  0  0  0  0  0  0  0  0  0  0  0
   -1.3539    3.3943    0.0000 F   0  0  0  0  0  0  0  0  0  0  0  0
  2  1  1  1
  2  3  1  0
  3  4  1  0
  4  5  2  0
  4  6  1  0
  6  7  1  0
  7  8  1  0
  7  9  1  0
  7 10  1  0
  2 11  1  0
 11 12  1  0
 12 13  2  0
 12 14  1  0
 14 18  1  0
 14 15  2  0
 15 16  1  0
 16 17  1  0
 17 18  1  0
 17 19  1  0
 19 20  1  0
 19 21  1  0
 21 22  1  0
 21 23  1  0
 21 24  1  0
 19 25  1  0
 25 26  1  0
 25 27  1  0
 25 28  1  0
M  END
>  <SMILES>  (225) 
C[C@@H](CC(=O)OC(C)(C)C)NC(=O)C1=NOC(C(O)(C(F)(F)F)C(F)(F)F)C1

>  <CollectionName>  (225) 
chembl

>  <LOG PLASMA PROTEIN BINDING (RAT) (% unbound)>  (225) 
1.20411998266

>  <Internal ID>  (225) 


>  <Source>  (225) 
AstraZeneca

$$$$
CHEMBL211177
     RDKit          2D

 28 28  0  0  1  0  0  0  0  0999 V2000
    2.7620   -2.4292    0.0000 C   0  0  0  0  0  0  0  0  0  0  0  0
    1.7673   -2.5325    0.0000 C   0  0  0  0  0  0  0  0  0  0  0  0
    1.3595   -3.4456    0.0000 C   0  0  0  0  0  0  0  0  0  0  0  0
    1.9463   -4.2553    0.0000 C   0  0  0  0  0  0  0  0  0  0  0  0
    2.9410   -4.1519    0.0000 O   0  0  0  0  0  0  0  0  0  0  0  0
    1.5385   -5.1683    0.0000 O   0  0  0  0  0  0  0  0  0  0  0  0
    2.1253   -5.9780    0.0000 C   0  0  0  0  0  0  0  0  0  0  0  0
    2.7121   -6.7878    0.0000 C   0  0  0  0  0  0  0  0  0  0  0  0
    1.3156   -6.5649    0.0000 C   0  0  0  0  0  0  0  0  0  0  0  0
    2.9350   -5.3912    0.0000 C   0  0  0  0  0  0  0  0  0  0  0  0
    1.1805   -1.7228    0.0000 N   0  0  0  0  0  0  0  0  0  0  0  0
    1.5883   -0.8097    0.0000 C   0  0  0  0  0  0  0  0  0  0  0  0
    2.5830   -0.7064    0.0000 O   0  0  0  0  0  0  0  0  0  0  0  0
    1.0015   -0.0000    0.0000 C   0  0  0  0  0  0  0  0  0  0  0  0
    1.3133    0.9519    0.0000 N   0  0  0  0  0  0  0  0  0  0  0  0
    0.5008    1.5428    0.0000 O   0  0  0  0  0  0  0  0  0  0  0  0
   -0.3065    0.9519    0.0000 C   0  0  0  0  0  0  0  0  0  0  0  0
    0.0000    0.0000    0.0000 C   0  0  0  0  0  0  0  0  0  0  0  0
   -1.9711    1.4920    0.0000 C   0  0  0  0  0  0  0  0  0  0  0  0
   -2.9223    1.8006    0.0000 O   0  0  0  0  0  0  0  0  0  0  0  0
   -2.2797    0.5408    0.0000 C   0  0  0  0  0  0  0  0  0  0  0  0
   -1.3285    0.2322    0.0000 F   0  0  0  0  0  0  0  0  0  0  0  0
   -3.2309    0.8494    0.0000 F   0  0  0  0  0  0  0  0  0  0  0  0
   -2.5883   -0.4104    0.0000 F   0  0  0  0  0  0  0  0  0  0  0  0
   -1.6625    2.4431    0.0000 C   0  0  0  0  0  0  0  0  0  0  0  0
   -2.6137    2.7517    0.0000 F   0  0  0  0  0  0  0  0  0  0  0  0
   -0.7113    2.1345    0.0000 F   0  0  0  0  0  0  0  0  0  0  0  0
   -1.3539    3.3943    0.0000 F   0  0  0  0  0  0  0  0  0  0  0  0
  2  1  1  1
  2  3  1  0
  3  4  1  0
  4  5  2  0
  4  6  1  0
  6  7  1  0
  7  8  1  0
  7  9  1  0
  7 10  1  0
  2 11  1  0
 11 12  1  0
 12 13  2  0
 12 14  1  0
 14 18  1  0
 14 15  2  0
 15 16  1  0
 16 17  1  0
 17 18  1  0
 17 19  1  6
 19 20  1  0
 19 21  1  0
 21 22  1  0
 21 23  1  0
 21 24  1  0
 19 25  1  0
 25 26  1  0
 25 27  1  0
 25 28  1  0
M  END
>  <SMILES>  (226) 
C[C@@H](CC(=O)OC(C)(C)C)NC(=O)C1=NO[C@@H](C(O)(C(F)(F)F)C(F)(F)F)C1

>  <CollectionName>  (226) 
chembl

>  <LOG PLASMA PROTEIN BINDING (RAT) (% unbound)>  (226) 
1.27852496474

>  <Internal ID>  (226) 


>  <Source>  (226) 
AstraZeneca

$$$$
CHEMBL219046
     RDKit          2D

 26 29  0  0  0  0  0  0  0  0999 V2000
    4.5406    2.5854    0.0000 O   0  0  0  0  0  0  0  0  0  0  0  0
    5.0394    1.7188    0.0000 C   0  0  0  0  0  0  0  0  0  0  0  0
    6.0394    1.7175    0.0000 O   0  0  0  0  0  0  0  0  0  0  0  0
    4.5383    0.8534    0.0000 C   0  0  0  0  0  0  0  0  0  0  0  0
    5.0414   -0.0275    0.0000 C   0  0  0  0  0  0  0  0  0  0  0  0
    6.0414   -0.0312    0.0000 O   0  0  0  0  0  0  0  0  0  0  0  0
    4.5328   -0.9029    0.0000 C   0  0  0  0  0  0  0  0  0  0  0  0
    5.0292   -1.7710    0.0000 C   0  0  0  0  0  0  0  0  0  0  0  0
    4.5256   -2.6349    0.0000 C   0  0  0  0  0  0  0  0  0  0  0  0
    3.5256   -2.6323    0.0000 C   0  0  0  0  0  0  0  0  0  0  0  0
    3.0183   -3.4940    0.0000 C   0  0  0  0  0  0  0  0  0  0  0  0
    3.5160   -4.3674    0.0000 C   0  0  0  0  0  0  0  0  0  0  0  0
    3.0086   -5.2291    0.0000 Cl  0  0  0  0  0  0  0  0  0  0  0  0
    4.5211   -4.3789    0.0000 C   0  0  0  0  0  0  0  0  0  0  0  0
    5.0234   -3.5083    0.0000 C   0  0  0  0  0  0  0  0  0  0  0  0
    3.5212   -0.8973    0.0000 N   0  0  0  0  0  0  0  0  0  0  0  0
    3.0202   -0.0240    0.0000 C   0  0  0  0  0  0  0  0  0  0  0  0
    2.0078   -0.0133    0.0000 C   0  0  0  0  0  0  0  0  0  0  0  0
    1.5058   -0.8814    0.0000 C   0  0  0  0  0  0  0  0  0  0  0  0
    0.4981   -0.8737    0.0000 C   0  0  0  0  0  0  0  0  0  0  0  0
    0.0000    0.0000    0.0000 C   0  0  0  0  0  0  0  0  0  0  0  0
    0.5098    0.8660    0.0000 C   0  0  0  0  0  0  0  0  0  0  0  0
    1.5098    0.8605    0.0000 C   0  0  0  0  0  0  0  0  0  0  0  0
    2.0203    1.7335    0.0000 C   0  0  0  0  0  0  0  0  0  0  0  0
    3.0288    1.7326    0.0000 C   0  0  0  0  0  0  0  0  0  0  0  0
    3.5288    0.8513    0.0000 C   0  0  0  0  0  0  0  0  0  0  0  0
  1  2  1  0
  2  3  2  0
  2  4  1  0
  4 26  2  0
  4  5  1  0
  5  6  1  0
  5  7  2  0
  7  8  1  0
  8  9  1  0
  9 15  1  0
  9 10  2  0
 10 11  1  0
 11 12  2  0
 12 13  1  0
 12 14  1  0
 14 15  2  0
  7 16  1  0
 16 17  2  0
 17 26  1  0
 17 18  1  0
 18 23  2  0
 18 19  1  0
 19 20  1  0
 20 21  1  0
 21 22  1  0
 22 23  1  0
 23 24  1  0
 24 25  2  0
 25 26  1  0
M  END
>  <SMILES>  (227) 
O=C(O)c1c(O)c(Cc2ccc(Cl)cc2)nc2c3c(ccc12)CCCC3

>  <CollectionName>  (227) 
chembl

>  <LOG PLASMA PROTEIN BINDING (RAT) (% unbound)>  (227) 
-0.853871964322

>  <Internal ID>  (227) 


>  <Source>  (227) 
AstraZeneca

$$$$
CHEMBL560993
     RDKit          2D

 26 29  0  0  0  0  0  0  0  0999 V2000
    6.1262    2.7704    0.0000 C   0  0  0  0  0  0  0  0  0  0  0  0
    5.1767    3.0844    0.0000 C   0  0  0  0  0  0  0  0  0  0  0  0
    4.3588    2.4968    0.0000 C   0  0  0  0  0  0  0  0  0  0  0  0
    4.3535    1.4968    0.0000 C   0  0  0  0  0  0  0  0  0  0  0  0
    3.4848    1.0014    0.0000 C   0  0  0  0  0  0  0  0  0  0  0  0
    3.4805   -0.0073    0.0000 C   0  0  0  0  0  0  0  0  0  0  0  0
    2.6039   -0.5053    0.0000 C   0  0  0  0  0  0  0  0  0  0  0  0
    1.7371    0.0000    0.0000 C   0  0  0  0  0  0  0  0  0  0  0  0
    0.8707   -0.4993    0.0000 C   0  0  0  0  0  0  0  0  0  0  0  0
    0.0000    0.0000    0.0000 C   0  0  0  0  0  0  0  0  0  0  0  0
    0.0000    1.0089    0.0000 C   0  0  0  0  0  0  0  0  0  0  0  0
    0.8707    1.5185    0.0000 C   0  0  0  0  0  0  0  0  0  0  0  0
    1.7414    1.0089    0.0000 C   0  0  0  0  0  0  0  0  0  0  0  0
    2.6125    1.5125    0.0000 N   0  0  0  0  0  0  0  0  0  0  0  0
    3.5472    3.0931    0.0000 C   0  0  0  0  0  0  0  0  0  0  0  0
    2.5672    2.8942    0.0000 C   0  0  0  0  0  0  0  0  0  0  0  0
    1.8994    3.6394    0.0000 C   0  0  0  0  0  0  0  0  0  0  0  0
    0.9205    3.4353    0.0000 F   0  0  0  0  0  0  0  0  0  0  0  0
    2.2153    4.5943    0.0000 C   0  0  0  0  0  0  0  0  0  0  0  0
    3.1989    4.8040    0.0000 C   0  0  0  0  0  0  0  0  0  0  0  0
    3.8635    4.0492    0.0000 C   0  0  0  0  0  0  0  0  0  0  0  0
    4.8705    4.0437    0.0000 N   0  0  0  0  0  0  0  0  0  0  0  0
    5.4626    4.8496    0.0000 C   0  0  0  0  0  0  0  0  0  0  0  0
    6.4565    4.7399    0.0000 C   0  0  0  0  0  0  0  0  0  0  0  0
    6.8584    3.8242    0.0000 O   0  0  0  0  0  0  0  0  0  0  0  0
    7.0486    5.5458    0.0000 O   0  0  0  0  0  0  0  0  0  0  0  0
  1  2  1  0
  2 22  1  0
  2  3  2  0
  3  4  1  0
  4  5  1  0
  5 14  1  0
  5  6  2  0
  6  7  1  0
  7  8  2  0
  8 13  1  0
  8  9  1  0
  9 10  2  0
 10 11  1  0
 11 12  2  0
 12 13  1  0
 13 14  2  0
  3 15  1  0
 15 21  2  0
 15 16  1  0
 16 17  2  0
 17 18  1  0
 17 19  1  0
 19 20  2  0
 20 21  1  0
 21 22  1  0
 22 23  1  0
 23 24  1  0
 24 25  2  0
 24 26  1  0
M  END
>  <SMILES>  (228) 
Cc1c(Cc2ccc3ccccc3n2)c2cc(F)ccc2n1CC(=O)O

>  <CollectionName>  (228) 
chembl

>  <LOG PLASMA PROTEIN BINDING (RAT) (% unbound)>  (228) 
-0.443697499233

>  <Internal ID>  (228) 


>  <Source>  (228) 
AstraZeneca

$$$$
CHEMBL563498
     RDKit          2D

 16 17  0  0  0  0  0  0  0  0999 V2000
    2.6025    1.5026    0.0000 N   0  0  0  0  0  0  0  0  0  0  0  0
    1.7350    1.0052    0.0000 C   0  0  0  0  0  0  0  0  0  0  0  0
    1.7350    0.0000    0.0000 N   0  0  0  0  0  0  0  0  0  0  0  0
    0.8675   -0.4975    0.0000 C   0  0  0  0  0  0  0  0  0  0  0  0
    0.8675   -1.4975    0.0000 O   0  0  0  0  0  0  0  0  0  0  0  0
    0.0000    0.0000    0.0000 C   0  0  0  0  0  0  0  0  0  0  0  0
   -0.8653   -0.5013    0.0000 C   0  0  0  0  0  0  0  0  0  0  0  0
   -1.7306   -1.0025    0.0000 N   0  0  0  0  0  0  0  0  0  0  0  0
    0.0000    1.0052    0.0000 C   0  0  0  0  0  0  0  0  0  0  0  0
    0.8675    1.5129    0.0000 N   0  0  0  0  0  0  0  0  0  0  0  0
   -0.8675    1.5026    0.0000 C   0  0  0  0  0  0  0  0  0  0  0  0
   -1.7350    0.9949    0.0000 C   0  0  0  0  0  0  0  0  0  0  0  0
   -2.6026    1.4923    0.0000 C   0  0  0  0  0  0  0  0  0  0  0  0
   -2.6114    2.4923    0.0000 C   0  0  0  0  0  0  0  0  0  0  0  0
   -1.7438    3.0001    0.0000 C   0  0  0  0  0  0  0  0  0  0  0  0
   -0.8675    2.5078    0.0000 C   0  0  0  0  0  0  0  0  0  0  0  0
  1  2  1  0
  2 10  2  0
  2  3  1  0
  3  4  2  0
  4  5  1  0
  4  6  1  0
  6  7  1  0
  7  8  3  0
  6  9  2  0
  9 10  1  0
  9 11  1  0
 11 16  1  0
 11 12  2  0
 12 13  1  0
 13 14  2  0
 14 15  1  0
 15 16  2  0
M  END
>  <SMILES>  (229) 
N#Cc1c(O)nc(N)nc1-c1ccccc1

>  <CollectionName>  (229) 
chembl

>  <LOG PLASMA PROTEIN BINDING (RAT) (% unbound)>  (229) 
0.563481085394

>  <Internal ID>  (229) 


>  <Source>  (229) 
AstraZeneca

$$$$
CHEMBL569184
     RDKit          2D

 29 31  0  0  1  0  0  0  0  0999 V2000
    2.2302    7.5468    0.0000 C   0  0  0  0  0  0  0  0  0  0  0  0
    1.3627    7.0493    0.0000 O   0  0  0  0  0  0  0  0  0  0  0  0
    1.3598    6.0493    0.0000 C   0  0  0  0  0  0  0  0  0  0  0  0
    2.2304    5.5467    0.0000 C   0  0  0  0  0  0  0  0  0  0  0  0
    2.2276    4.5467    0.0000 C   0  0  0  0  0  0  0  0  0  0  0  0
    1.3630    4.0441    0.0000 C   0  0  0  0  0  0  0  0  0  0  0  0
    1.3645    3.0441    0.0000 C   0  0  0  0  0  0  0  0  0  0  0  0
    0.4993    2.5428    0.0000 C   0  0  0  0  0  0  0  0  0  0  0  0
    0.5008    1.5428    0.0000 N   0  0  0  0  0  0  0  0  0  0  0  0
   -0.3065    0.9519    0.0000 C   0  0  0  0  0  0  0  0  0  0  0  0
    0.0000    0.0000    0.0000 C   0  0  0  0  0  0  0  0  0  0  0  0
    1.0015   -0.0000    0.0000 N   0  0  0  0  0  0  0  0  0  0  0  0
    1.5883   -0.8097    0.0000 N   0  0  0  0  0  0  0  0  0  0  0  0
    2.5830   -0.7064    0.0000 S   0  0  0  0  0  0  0  0  0  0  0  0
    2.6863   -1.7010    0.0000 O   0  0  0  0  0  0  0  0  0  0  0  0
    2.4796    0.2883    0.0000 O   0  0  0  0  0  0  0  0  0  0  0  0
    3.5776   -0.6030    0.0000 C   0  0  0  0  0  0  0  0  0  0  0  0
    1.3133    0.9519    0.0000 C   0  0  0  0  0  0  0  0  0  0  0  0
    2.2648    1.2596    0.0000 O   0  0  0  0  0  0  0  0  0  0  0  0
   -1.2577    1.2605    0.0000 C   0  0  0  0  0  0  0  0  0  0  0  0
   -1.4675    2.2383    0.0000 C   0  0  0  0  0  0  0  0  0  0  0  0
   -2.4173    2.5510    0.0000 C   0  0  0  0  0  0  0  0  0  0  0  0
   -3.1650    1.8792    0.0000 C   0  0  0  0  0  0  0  0  0  0  0  0
   -4.1148    2.1920    0.0000 O   0  0  0  0  0  0  0  0  0  0  0  0
   -4.3189    3.1709    0.0000 C   0  0  0  0  0  0  0  0  0  0  0  0
   -2.9628    0.8946    0.0000 C   0  0  0  0  0  0  0  0  0  0  0  0
   -2.0054    0.5886    0.0000 C   0  0  0  0  0  0  0  0  0  0  0  0
    0.4924    4.5467    0.0000 C   0  0  0  0  0  0  0  0  0  0  0  0
    0.4864    5.5518    0.0000 C   0  0  0  0  0  0  0  0  0  0  0  0
  1  2  1  0
  2  3  1  0
  3 29  2  0
  3  4  1  0
  4  5  2  0
  5  6  1  0
  6  7  1  0
  7  8  1  0
  8  9  1  0
  9 18  1  0
  9 10  1  0
 10 11  1  0
 11 12  1  0
 12 13  1  0
 13 14  1  0
 14 15  2  0
 14 16  2  0
 14 17  1  0
 12 18  1  0
 18 19  2  0
 10 20  1  6
 20 27  1  0
 20 21  2  0
 21 22  1  0
 22 23  2  0
 23 24  1  0
 24 25  1  0
 23 26  1  0
 26 27  2  0
  6 28  2  0
 28 29  1  0
M  END
>  <SMILES>  (230) 
COc1ccc(CCN2C(=O)N(NS(C)(=O)=O)C[C@@H]2c2ccc(OC)cc2)cc1

>  <CollectionName>  (230) 
chembl

>  <LOG PLASMA PROTEIN BINDING (RAT) (% unbound)>  (230) 
0.281033367248

>  <Internal ID>  (230) 


>  <Source>  (230) 
AstraZeneca

$$$$
CHEMBL1916285
     RDKit          2D

 38 41  0  0  1  0  0  0  0  0999 V2000
   -4.0734   -2.2772    0.0000 C   0  0  0  0  0  0  0  0  0  0  0  0
   -4.8204   -2.9420    0.0000 C   0  0  0  0  0  0  0  0  0  0  0  0
   -4.6182   -3.9213    0.0000 N   0  0  0  0  0  0  0  0  0  0  0  0
   -3.6689   -4.2358    0.0000 C   0  0  0  0  0  0  0  0  0  0  0  0
   -2.9219   -3.5710    0.0000 O   0  0  0  0  0  0  0  0  0  0  0  0
   -3.3149   -5.9497    0.0000 C   0  0  0  0  0  0  0  0  0  0  0  0
   -3.9874   -6.6899    0.0000 C   0  0  0  0  0  0  0  0  0  0  0  0
   -4.9811   -6.5778    0.0000 C   0  0  0  0  0  0  0  0  0  0  0  0
   -3.4964   -7.5615    0.0000 N   0  0  0  0  0  0  0  0  0  0  0  0
   -2.5123   -7.3592    0.0000 N   0  0  0  0  0  0  0  0  0  0  0  0
   -2.4029   -6.3635    0.0000 C   0  0  0  0  0  0  0  0  0  0  0  0
   -0.8823   -5.4975    0.0000 N   0  0  0  0  0  0  0  0  0  0  0  0
   -0.8764   -4.4975    0.0000 S   0  0  0  0  0  0  0  0  0  0  0  0
    0.1236   -4.5034    0.0000 O   0  0  0  0  0  0  0  0  0  0  0  0
   -1.8763   -4.4916    0.0000 O   0  0  0  0  0  0  0  0  0  0  0  0
   -0.8705   -3.4975    0.0000 C   0  0  0  0  0  0  0  0  0  0  0  0
   -1.7395   -2.9923    0.0000 C   0  0  0  0  0  0  0  0  0  0  0  0
   -1.7336   -1.9923    0.0000 C   0  0  0  0  0  0  0  0  0  0  0  0
   -0.8676   -1.4923    0.0000 C   0  0  0  0  0  0  0  0  0  0  0  0
    0.0015   -1.9975    0.0000 C   0  0  0  0  0  0  0  0  0  0  0  0
    0.8675   -1.4975    0.0000 C   0  0  0  0  0  0  0  0  0  0  0  0
    0.8675   -0.4975    0.0000 N   0  0  0  0  0  0  0  0  0  0  0  0
    0.0000    0.0000    0.0000 C   0  0  0  0  0  0  0  0  0  0  0  0
    0.0000    1.0052    0.0000 C   0  0  0  0  0  0  0  0  0  0  0  0
    0.8675    1.5129    0.0000 O   0  0  0  0  0  0  0  0  0  0  0  0
    1.7350    1.0052    0.0000 C   0  0  0  0  0  0  0  0  0  0  0  0
    1.7350    0.0000    0.0000 C   0  0  0  0  0  0  0  0  0  0  0  0
    0.0044   -3.0026    0.0000 C   0  0  0  0  0  0  0  0  0  0  0  0
   -1.7730   -8.0325    0.0000 C   0  0  0  0  0  0  0  0  0  0  0  0
   -1.9904   -9.0139    0.0000 C   0  0  0  0  0  0  0  0  0  0  0  0
   -1.2511   -9.6873    0.0000 C   0  0  0  0  0  0  0  0  0  0  0  0
   -0.2965   -9.3892    0.0000 C   0  0  0  0  0  0  0  0  0  0  0  0
   -0.0791   -8.4078    0.0000 C   0  0  0  0  0  0  0  0  0  0  0  0
   -0.8162   -7.7245    0.0000 C   0  0  0  0  0  0  0  0  0  0  0  0
   -5.7697   -2.6275    0.0000 C   0  0  0  0  0  0  0  0  0  0  0  0
   -6.7190   -2.3130    0.0000 C   0  0  0  0  0  0  0  0  0  0  0  0
   -6.0842   -3.5768    0.0000 C   0  0  0  0  0  0  0  0  0  0  0  0
   -5.4552   -1.6783    0.0000 C   0  0  0  0  0  0  0  0  0  0  0  0
  2  1  1  6
  2  3  1  0
  3  4  1  0
  4  5  2  0
  4  6  1  0
  6 11  2  0
  6  7  1  0
  7  8  1  0
  7  9  2  0
  9 10  1  0
 10 11  1  0
 11 12  1  0
 12 13  1  0
 13 14  2  0
 13 15  2  0
 13 16  1  0
 16 28  1  0
 16 17  2  0
 17 18  1  0
 18 19  2  0
 19 20  1  0
 20 21  1  0
 21 22  1  0
 22 27  1  0
 22 23  1  0
 23 24  1  0
 24 25  1  0
 25 26  1  0
 26 27  1  0
 20 28  2  0
 10 29  1  0
 29 34  1  0
 29 30  2  0
 30 31  1  0
 31 32  2  0
 32 33  1  0
 33 34  2  0
  2 35  1  0
 35 36  1  0
 35 37  1  0
 35 38  1  0
M  END
>  <SMILES>  (231) 
Cc1nn(-c2ccccc2)c(NS(=O)(=O)c2cccc(CN3CCOCC3)c2)c1C(=O)N[C@@H](C)C(C)(C)C

>  <CollectionName>  (231) 
chembl

>  <LOG PLASMA PROTEIN BINDING (RAT) (% unbound)>  (231) 
1.20411998266

>  <Internal ID>  (231) 


>  <Source>  (231) 
AstraZeneca

$$$$
CHEMBL1934426
     RDKit          2D

 34 37  0  0  1  0  0  0  0  0999 V2000
   -2.2082   -3.0309    0.0000 C   0  0  0  0  0  0  0  0  0  0  0  0
   -2.6137   -2.1168    0.0000 C   0  0  0  0  0  0  0  0  0  0  0  0
   -2.0249   -1.3086    0.0000 N   0  0  0  0  0  0  0  0  0  0  0  0
   -1.0305   -1.4144    0.0000 C   0  0  0  0  0  0  0  0  0  0  0  0
   -0.6250   -2.3285    0.0000 O   0  0  0  0  0  0  0  0  0  0  0  0
    0.0000    0.0000    0.0000 C   0  0  0  0  0  0  0  0  0  0  0  0
   -0.3065    0.9519    0.0000 C   0  0  0  0  0  0  0  0  0  0  0  0
   -1.2577    1.2605    0.0000 C   0  0  0  0  0  0  0  0  0  0  0  0
    0.5008    1.5428    0.0000 N   0  0  0  0  0  0  0  0  0  0  0  0
    1.3133    0.9519    0.0000 N   0  0  0  0  0  0  0  0  0  0  0  0
    2.2648    1.2596    0.0000 C   0  0  0  0  0  0  0  0  0  0  0  0
    2.4713    2.2380    0.0000 C   0  0  0  0  0  0  0  0  0  0  0  0
    3.4277    2.5473    0.0000 C   0  0  0  0  0  0  0  0  0  0  0  0
    4.1777    1.8781    0.0000 O   0  0  0  0  0  0  0  0  0  0  0  0
    3.9615    0.8965    0.0000 C   0  0  0  0  0  0  0  0  0  0  0  0
    3.0051    0.5872    0.0000 C   0  0  0  0  0  0  0  0  0  0  0  0
    1.0015   -0.0000    0.0000 C   0  0  0  0  0  0  0  0  0  0  0  0
    2.0284   -1.4170    0.0000 N   0  0  0  0  0  0  0  0  0  0  0  0
    1.6206   -2.3301    0.0000 S   0  0  0  0  0  0  0  0  0  0  0  0
    2.5337   -2.7379    0.0000 O   0  0  0  0  0  0  0  0  0  0  0  0
    0.7076   -1.9222    0.0000 O   0  0  0  0  0  0  0  0  0  0  0  0
    1.2128   -3.2431    0.0000 C   0  0  0  0  0  0  0  0  0  0  0  0
    0.2127   -3.3441    0.0000 C   0  0  0  0  0  0  0  0  0  0  0  0
   -0.1952   -4.2571    0.0000 C   0  0  0  0  0  0  0  0  0  0  0  0
    0.3869   -5.0703    0.0000 C   0  0  0  0  0  0  0  0  0  0  0  0
    1.3870   -4.9694    0.0000 C   0  0  0  0  0  0  0  0  0  0  0  0
    1.8050   -4.0553    0.0000 C   0  0  0  0  0  0  0  0  0  0  0  0
   -0.0250   -5.9815    0.0000 C   0  0  0  0  0  0  0  0  0  0  0  0
    0.0731   -6.9786    0.0000 C   0  0  0  0  0  0  0  0  0  0  0  0
   -0.8382   -6.5668    0.0000 C   0  0  0  0  0  0  0  0  0  0  0  0
   -3.6081   -2.0110    0.0000 C   0  0  0  0  0  0  0  0  0  0  0  0
   -4.6025   -1.9051    0.0000 C   0  0  0  0  0  0  0  0  0  0  0  0
   -3.5023   -1.0166    0.0000 C   0  0  0  0  0  0  0  0  0  0  0  0
   -3.7140   -3.0053    0.0000 C   0  0  0  0  0  0  0  0  0  0  0  0
  2  1  1  1
  2  3  1  0
  3  4  1  0
  4  5  2  0
  4  6  1  0
  6 17  2  0
  6  7  1  0
  7  8  1  0
  7  9  2  0
  9 10  1  0
 10 11  1  0
 11 16  1  0
 11 12  1  0
 12 13  1  0
 13 14  1  0
 14 15  1  0
 15 16  1  0
 10 17  1  0
 17 18  1  0
 18 19  1  0
 19 20  2  0
 19 21  2  0
 19 22  1  0
 22 27  1  0
 22 23  2  0
 23 24  1  0
 24 25  2  0
 25 26  1  0
 26 27  2  0
 25 28  1  0
 28 30  1  0
 28 29  1  0
 29 30  1  0
  2 31  1  0
 31 32  1  0
 31 33  1  0
 31 34  1  0
M  END
>  <SMILES>  (232) 
Cc1nn(C2CCOCC2)c(NS(=O)(=O)c2ccc(C3CC3)cc2)c1C(=O)N[C@@H](C)C(C)(C)C

>  <CollectionName>  (232) 
chembl

>  <LOG PLASMA PROTEIN BINDING (RAT) (% unbound)>  (232) 
1.03941411918

>  <Internal ID>  (232) 


>  <Source>  (232) 
AstraZeneca

$$$$
CHEMBL192307
     RDKit          2D

 22 24  0  0  0  0  0  0  0  0999 V2000
    6.8225    4.3223    0.0000 C   0  0  0  0  0  0  0  0  0  0  0  0
    5.8225    4.3255    0.0000 C   0  0  0  0  0  0  0  0  0  0  0  0
    5.3198    3.4611    0.0000 C   0  0  0  0  0  0  0  0  0  0  0  0
    4.3198    3.4643    0.0000 C   0  0  0  0  0  0  0  0  0  0  0  0
    3.8170    2.5999    0.0000 C   0  0  0  0  0  0  0  0  0  0  0  0
    4.2240    1.6775    0.0000 N   0  0  0  0  0  0  0  0  0  0  0  0
    3.4726    1.0054    0.0000 C   0  0  0  0  0  0  0  0  0  0  0  0
    3.4748    0.0022    0.0000 C   0  0  0  0  0  0  0  0  0  0  0  0
    4.3410   -0.4975    0.0000 N   0  0  0  0  0  0  0  0  0  0  0  0
    2.6038   -0.4989    0.0000 N   0  0  0  0  0  0  0  0  0  0  0  0
    1.7371    0.0000    0.0000 C   0  0  0  0  0  0  0  0  0  0  0  0
    0.8679   -0.4978    0.0000 C   0  0  0  0  0  0  0  0  0  0  0  0
    0.0000    0.0000    0.0000 C   0  0  0  0  0  0  0  0  0  0  0  0
    0.0000    1.0056    0.0000 C   0  0  0  0  0  0  0  0  0  0  0  0
    0.8679    1.5134    0.0000 C   0  0  0  0  0  0  0  0  0  0  0  0
    1.7358    1.0056    0.0000 C   0  0  0  0  0  0  0  0  0  0  0  0
    2.6012    1.5124    0.0000 C   0  0  0  0  0  0  0  0  0  0  0  0
    2.8140    2.4976    0.0000 N   0  0  0  0  0  0  0  0  0  0  0  0
    2.1472    3.2429    0.0000 C   0  0  0  0  0  0  0  0  0  0  0  0
    2.4593    4.1929    0.0000 C   0  0  0  0  0  0  0  0  0  0  0  0
    1.7925    4.9382    0.0000 C   0  0  0  0  0  0  0  0  0  0  0  0
    3.4381    4.3977    0.0000 C   0  0  0  0  0  0  0  0  0  0  0  0
  1  2  1  0
  2  3  1  0
  3  4  1  0
  4  5  1  0
  5 18  1  0
  5  6  2  0
  6  7  1  0
  7 17  2  0
  7  8  1  0
  8  9  1  0
  8 10  2  0
 10 11  1  0
 11 16  2  0
 11 12  1  0
 12 13  2  0
 13 14  1  0
 14 15  2  0
 15 16  1  0
 16 17  1  0
 17 18  1  0
 18 19  1  0
 19 20  1  0
 20 21  1  0
 20 22  1  0
M  END
>  <SMILES>  (233) 
CCCCc1nc2c(N)nc3ccccc3c2n1CC(C)C

>  <CollectionName>  (233) 
chembl

>  <LOG PLASMA PROTEIN BINDING (RAT) (% unbound)>  (233) 
0.487138375477

>  <Internal ID>  (233) 


>  <Source>  (233) 
AstraZeneca

$$$$
CHEMBL193240
     RDKit          2D

 26 28  0  0  0  0  0  0  0  0999 V2000
    2.5847   -5.5127    0.0000 F   0  0  0  0  0  0  0  0  0  0  0  0
    1.7165   -6.0089    0.0000 C   0  0  0  0  0  0  0  0  0  0  0  0
    1.7121   -7.0089    0.0000 F   0  0  0  0  0  0  0  0  0  0  0  0
    0.8527   -5.5051    0.0000 O   0  0  0  0  0  0  0  0  0  0  0  0
    0.8571   -4.5051    0.0000 C   0  0  0  0  0  0  0  0  0  0  0  0
   -0.0060   -4.0001    0.0000 C   0  0  0  0  0  0  0  0  0  0  0  0
   -0.0060   -3.0000    0.0000 C   0  0  0  0  0  0  0  0  0  0  0  0
    0.8660   -2.5000    0.0000 C   0  0  0  0  0  0  0  0  0  0  0  0
    1.7380   -3.0000    0.0000 C   0  0  0  0  0  0  0  0  0  0  0  0
    1.7291   -4.0051    0.0000 C   0  0  0  0  0  0  0  0  0  0  0  0
    2.5921   -4.5102    0.0000 O   0  0  0  0  0  0  0  0  0  0  0  0
    3.4611   -4.0153    0.0000 C   0  0  0  0  0  0  0  0  0  0  0  0
    4.3242   -4.5204    0.0000 C   0  0  0  0  0  0  0  0  0  0  0  0
    4.8209   -5.3905    0.0000 C   0  0  0  0  0  0  0  0  0  0  0  0
    5.3260   -4.5274    0.0000 C   0  0  0  0  0  0  0  0  0  0  0  0
    0.8660   -1.5000    0.0000 C   0  0  0  0  0  0  0  0  0  0  0  0
    1.7321   -1.0000    0.0000 O   0  0  0  0  0  0  0  0  0  0  0  0
    0.0000   -1.0000    0.0000 N   0  0  0  0  0  0  0  0  0  0  0  0
    0.0000    0.0000    0.0000 C   0  0  0  0  0  0  0  0  0  0  0  0
   -0.8675    0.4975    0.0000 C   0  0  0  0  0  0  0  0  0  0  0  0
   -1.7328   -0.0038    0.0000 Cl  0  0  0  0  0  0  0  0  0  0  0  0
   -0.8675    1.5027    0.0000 C   0  0  0  0  0  0  0  0  0  0  0  0
   -0.0000    2.0104    0.0000 N   0  0  0  0  0  0  0  0  0  0  0  0
    0.8675    1.5027    0.0000 C   0  0  0  0  0  0  0  0  0  0  0  0
    0.8675    0.4975    0.0000 C   0  0  0  0  0  0  0  0  0  0  0  0
    1.7328   -0.0038    0.0000 Cl  0  0  0  0  0  0  0  0  0  0  0  0
  1  2  1  0
  2  3  1  0
  2  4  1  0
  4  5  1  0
  5 10  2  0
  5  6  1  0
  6  7  2  0
  7  8  1  0
  8  9  2  0
  9 10  1  0
 10 11  1  0
 11 12  1  0
 12 13  1  0
 13 15  1  0
 13 14  1  0
 14 15  1  0
  8 16  1  0
 16 17  2  0
 16 18  1  0
 18 19  1  0
 19 25  1  0
 19 20  2  0
 20 21  1  0
 20 22  1  0
 22 23  2  0
 23 24  1  0
 24 25  2  0
 25 26  1  0
M  END
>  <SMILES>  (234) 
O=C(Nc1c(Cl)cncc1Cl)c1ccc(OC(F)F)c(OCC2CC2)c1

>  <CollectionName>  (234) 
chembl

>  <LOG PLASMA PROTEIN BINDING (RAT) (% unbound)>  (234) 
0.0569048513365

>  <Internal ID>  (234) 


>  <Source>  (234) 
AstraZeneca

$$$$
CHEMBL204997
     RDKit          2D

 24 27  0  0  0  0  0  0  0  0999 V2000
   -1.7320    1.0008    0.0000 N   0  0  0  0  0  0  0  0  0  0  0  0
   -0.8675    1.5033    0.0000 C   0  0  0  0  0  0  0  0  0  0  0  0
   -0.8704    2.5033    0.0000 N   0  0  0  0  0  0  0  0  0  0  0  0
    0.0000    1.0058    0.0000 C   0  0  0  0  0  0  0  0  0  0  0  0
    0.0000    0.0000    0.0000 C   0  0  0  0  0  0  0  0  0  0  0  0
    0.8680   -0.4979    0.0000 C   0  0  0  0  0  0  0  0  0  0  0  0
    1.7360   -0.0013    0.0000 C   0  0  0  0  0  0  0  0  0  0  0  0
    2.6938   -0.3126    0.0000 N   0  0  0  0  0  0  0  0  0  0  0  0
    3.2858    0.5022    0.0000 C   0  0  0  0  0  0  0  0  0  0  0  0
    2.6938    1.3168    0.0000 N   0  0  0  0  0  0  0  0  0  0  0  0
    1.7360    1.0058    0.0000 C   0  0  0  0  0  0  0  0  0  0  0  0
    0.8680    1.5137    0.0000 C   0  0  0  0  0  0  0  0  0  0  0  0
    4.2858    0.5023    0.0000 C   0  0  0  0  0  0  0  0  0  0  0  0
    4.8713    1.3135    0.0000 N   0  0  0  0  0  0  0  0  0  0  0  0
    5.8265    1.0022    0.0000 N   0  0  0  0  0  0  0  0  0  0  0  0
    5.8237    0.0006    0.0000 C   0  0  0  0  0  0  0  0  0  0  0  0
    4.8711   -0.3086    0.0000 C   0  0  0  0  0  0  0  0  0  0  0  0
    4.5605   -1.2591    0.0000 O   0  0  0  0  0  0  0  0  0  0  0  0
    6.6318   -0.5885    0.0000 C   0  0  0  0  0  0  0  0  0  0  0  0
    7.5496   -0.1784    0.0000 C   0  0  0  0  0  0  0  0  0  0  0  0
    8.3577   -0.7674    0.0000 C   0  0  0  0  0  0  0  0  0  0  0  0
    8.2574   -1.7624    0.0000 C   0  0  0  0  0  0  0  0  0  0  0  0
    7.3397   -2.1725    0.0000 C   0  0  0  0  0  0  0  0  0  0  0  0
    6.5223   -1.5876    0.0000 C   0  0  0  0  0  0  0  0  0  0  0  0
  1  2  1  0
  2  3  2  3
  2  4  1  0
  4 12  2  0
  4  5  1  0
  5  6  2  0
  6  7  1  0
  7 11  2  0
  7  8  1  0
  8  9  1  0
  9 10  2  0
 10 11  1  0
 11 12  1  0
  9 13  1  0
 13 17  1  0
 13 14  2  0
 14 15  1  0
 15 16  1  0
 16 17  2  0
 17 18  1  0
 16 19  1  0
 19 24  1  0
 19 20  2  0
 20 21  1  0
 21 22  2  0
 22 23  1  0
 23 24  2  0
M  END
>  <SMILES>  (235) 
N=C(N)c1ccc2[nH]c(-c3n[nH]c(-c4ccccc4)c3O)nc2c1

>  <CollectionName>  (235) 
chembl

>  <LOG PLASMA PROTEIN BINDING (RAT) (% unbound)>  (235) 
1.07518185462

>  <Internal ID>  (235) 


>  <Source>  (235) 
AstraZeneca

$$$$
CHEMBL205412
     RDKit          2D

 41 44  0  0  1  0  0  0  0  0999 V2000
    6.7179   -0.8694    0.0000 C   0  0  0  0  0  0  0  0  0  0  0  0
    6.7208   -1.8694    0.0000 N   0  0  0  0  0  0  0  0  0  0  0  0
    5.8563   -2.3720    0.0000 C   0  0  0  0  0  0  0  0  0  0  0  0
    4.9888   -1.8745    0.0000 C   0  0  0  0  0  0  0  0  0  0  0  0
    4.9844   -0.8745    0.0000 C   0  0  0  0  0  0  0  0  0  0  0  0
    4.1190   -0.3733    0.0000 C   0  0  0  0  0  0  0  0  0  0  0  0
    3.2493   -0.8772    0.0000 C   0  0  0  0  0  0  0  0  0  0  0  0
    3.2449   -1.8823    0.0000 C   0  0  0  0  0  0  0  0  0  0  0  0
    4.1190   -2.3784    0.0000 C   0  0  0  0  0  0  0  0  0  0  0  0
    1.7350    0.0000    0.0000 C   0  0  0  0  0  0  0  0  0  0  0  0
    0.8675   -0.4975    0.0000 C   0  0  0  0  0  0  0  0  0  0  0  0
    0.0000    0.0000    0.0000 C   0  0  0  0  0  0  0  0  0  0  0  0
    0.0000    1.0052    0.0000 C   0  0  0  0  0  0  0  0  0  0  0  0
    0.8675    1.5129    0.0000 C   0  0  0  0  0  0  0  0  0  0  0  0
    1.7350    1.0052    0.0000 C   0  0  0  0  0  0  0  0  0  0  0  0
    2.6025    1.5026    0.0000 S   0  0  0  0  0  0  0  0  0  0  0  0
    2.1051    2.3701    0.0000 O   0  0  0  0  0  0  0  0  0  0  0  0
    3.0999    0.6351    0.0000 O   0  0  0  0  0  0  0  0  0  0  0  0
    3.4700    2.0001    0.0000 N   0  0  0  0  0  0  0  0  0  0  0  0
    7.5883   -2.3669    0.0000 C   0  0  0  0  0  0  0  0  0  0  0  0
    7.5913   -3.3669    0.0000 O   0  0  0  0  0  0  0  0  0  0  0  0
    8.4529   -1.8643    0.0000 C   0  0  0  0  0  0  0  0  0  0  0  0
    8.5564   -0.8694    0.0000 C   0  0  0  0  0  0  0  0  0  0  0  0
    9.5331   -0.6546    0.0000 C   0  0  0  0  0  0  0  0  0  0  0  0
   10.0376   -1.5195    0.0000 C   0  0  0  0  0  0  0  0  0  0  0  0
    9.3725   -2.2684    0.0000 C   0  0  0  0  0  0  0  0  0  0  0  0
    9.5861   -3.2453    0.0000 C   0  0  0  0  0  0  0  0  0  0  0  0
    8.8468   -3.9188    0.0000 O   0  0  0  0  0  0  0  0  0  0  0  0
   10.5389   -3.5488    0.0000 N   0  0  0  0  0  0  0  0  0  0  0  0
   10.7525   -4.5257    0.0000 C   0  0  0  0  0  0  0  0  0  0  0  0
   11.7053   -4.8292    0.0000 C   0  0  0  0  0  0  0  0  0  0  0  0
   12.4456   -4.1569    0.0000 C   0  0  0  0  0  0  0  0  0  0  0  0
   13.3997   -4.4562    0.0000 C   0  0  0  0  0  0  0  0  0  0  0  0
   13.6159   -5.4379    0.0000 C   0  0  0  0  0  0  0  0  0  0  0  0
   14.5700   -5.7372    0.0000 O   0  0  0  0  0  0  0  0  0  0  0  0
   14.7879   -6.7132    0.0000 C   0  0  0  0  0  0  0  0  0  0  0  0
   13.8119   -6.9310    0.0000 F   0  0  0  0  0  0  0  0  0  0  0  0
   15.7639   -6.4953    0.0000 F   0  0  0  0  0  0  0  0  0  0  0  0
   15.0058   -7.6891    0.0000 F   0  0  0  0  0  0  0  0  0  0  0  0
   12.8778   -6.1202    0.0000 C   0  0  0  0  0  0  0  0  0  0  0  0
   11.9214   -5.8109    0.0000 C   0  0  0  0  0  0  0  0  0  0  0  0
  1  2  1  0
  2  3  1  0
  3  4  1  0
  4  9  1  0
  4  5  2  0
  5  6  1  0
  6  7  2  0
  7  8  1  0
  8  9  2  0
  7 10  1  0
 10 15  1  0
 10 11  2  0
 11 12  1  0
 12 13  2  0
 13 14  1  0
 14 15  2  0
 15 16  1  0
 16 17  2  0
 16 18  2  0
 16 19  1  0
  2 20  1  0
 20 21  2  0
 22 20  1  6
 22 26  1  0
 22 23  1  0
 23 24  1  0
 24 25  1  0
 25 26  1  0
 26 27  1  1
 27 28  2  0
 27 29  1  0
 29 30  1  0
 30 31  1  0
 31 41  1  0
 31 32  2  0
 32 33  1  0
 33 34  2  0
 34 35  1  0
 35 36  1  0
 36 37  1  0
 36 38  1  0
 36 39  1  0
 34 40  1  0
 40 41  2  0
M  END
>  <SMILES>  (236) 
CN(Cc1ccc(-c2ccccc2S(N)(=O)=O)cc1)C(=O)[C@@H]1CCC[C@H]1C(=O)NCc1ccc(OC(F)(F)F)cc1

>  <CollectionName>  (236) 
chembl

>  <LOG PLASMA PROTEIN BINDING (RAT) (% unbound)>  (236) 
-0.52287874528

>  <Internal ID>  (236) 


>  <Source>  (236) 
AstraZeneca

$$$$
CHEMBL541944
     RDKit          2D

 41 45  0  0  0  0  0  0  0  0999 V2000
   -1.1924   13.2601    0.0000 F   0  0  0  0  0  0  0  0  0  0  0  0
   -0.6128   12.4452    0.0000 C   0  0  0  0  0  0  0  0  0  0  0  0
    0.3876   12.5432    0.0000 C   0  0  0  0  0  0  0  0  0  0  0  0
    0.9673   11.7283    0.0000 C   0  0  0  0  0  0  0  0  0  0  0  0
    0.5567   10.8164    0.0000 C   0  0  0  0  0  0  0  0  0  0  0  0
   -0.4437   10.7185    0.0000 C   0  0  0  0  0  0  0  0  0  0  0  0
   -1.0336   11.5324    0.0000 C   0  0  0  0  0  0  0  0  0  0  0  0
    1.1399   10.0041    0.0000 C   0  0  0  0  0  0  0  0  0  0  0  0
    0.7280    9.0929    0.0000 N   0  0  0  0  0  0  0  0  0  0  0  0
    1.3111    8.2805    0.0000 C   0  0  0  0  0  0  0  0  0  0  0  0
    2.3062    8.3794    0.0000 O   0  0  0  0  0  0  0  0  0  0  0  0
    0.8992    7.3693    0.0000 C   0  0  0  0  0  0  0  0  0  0  0  0
    1.4824    6.5570    0.0000 N   0  0  0  0  0  0  0  0  0  0  0  0
    1.0738    5.6386    0.0000 C   0  0  0  0  0  0  0  0  0  0  0  0
    1.6600    4.8221    0.0000 C   0  0  0  0  0  0  0  0  0  0  0  0
    2.6549    4.9238    0.0000 N   0  0  0  0  0  0  0  0  0  0  0  0
    3.2380    4.1115    0.0000 C   0  0  0  0  0  0  0  0  0  0  0  0
    2.8261    3.2003    0.0000 C   0  0  0  0  0  0  0  0  0  0  0  0
    3.3230    2.3307    0.0000 C   0  0  0  0  0  0  0  0  0  0  0  0
    2.6486    1.5924    0.0000 C   0  0  0  0  0  0  0  0  0  0  0  0
    1.7350    2.0001    0.0000 N   0  0  0  0  0  0  0  0  0  0  0  0
    1.8450    2.9988    0.0000 C   0  0  0  0  0  0  0  0  0  0  0  0
    0.8675    1.5027    0.0000 C   0  0  0  0  0  0  0  0  0  0  0  0
    0.8675    0.4975    0.0000 C   0  0  0  0  0  0  0  0  0  0  0  0
    0.0000    0.0000    0.0000 C   0  0  0  0  0  0  0  0  0  0  0  0
   -0.8675    0.4975    0.0000 C   0  0  0  0  0  0  0  0  0  0  0  0
   -0.8675    1.5027    0.0000 C   0  0  0  0  0  0  0  0  0  0  0  0
    0.0000    2.0104    0.0000 N   0  0  0  0  0  0  0  0  0  0  0  0
   -1.7328   -0.0038    0.0000 C   0  0  0  0  0  0  0  0  0  0  0  0
   -1.2315   -0.8691    0.0000 F   0  0  0  0  0  0  0  0  0  0  0  0
   -2.2341    0.8615    0.0000 F   0  0  0  0  0  0  0  0  0  0  0  0
   -2.5981   -0.5050    0.0000 F   0  0  0  0  0  0  0  0  0  0  0  0
    3.0694    5.8339    0.0000 C   0  0  0  0  0  0  0  0  0  0  0  0
    2.4832    6.6505    0.0000 C   0  0  0  0  0  0  0  0  0  0  0  0
    2.1350   10.1030    0.0000 C   0  0  0  0  0  0  0  0  0  0  0  0
    2.7193    9.2915    0.0000 C   0  0  0  0  0  0  0  0  0  0  0  0
    3.7149    9.3860    0.0000 C   0  0  0  0  0  0  0  0  0  0  0  0
    4.1303   10.3014    0.0000 C   0  0  0  0  0  0  0  0  0  0  0  0
    5.1258   10.3959    0.0000 F   0  0  0  0  0  0  0  0  0  0  0  0
    3.5501   11.1222    0.0000 C   0  0  0  0  0  0  0  0  0  0  0  0
    2.5503   11.0183    0.0000 C   0  0  0  0  0  0  0  0  0  0  0  0
  1  2  1  0
  2  7  2  0
  2  3  1  0
  3  4  2  0
  4  5  1  0
  5  6  2  0
  6  7  1  0
  5  8  1  0
  8  9  1  0
  9 10  1  0
 10 11  2  0
 10 12  1  0
 12 13  1  0
 13 34  1  0
 13 14  1  0
 14 15  1  0
 15 16  1  0
 16 17  1  0
 17 18  1  0
 18 22  2  0
 18 19  1  0
 19 20  2  0
 20 21  1  0
 21 22  1  0
 21 23  1  0
 23 28  1  0
 23 24  2  0
 24 25  1  0
 25 26  2  0
 26 27  1  0
 27 28  2  0
 26 29  1  0
 29 30  1  0
 29 31  1  0
 29 32  1  0
 16 33  1  0
 33 34  1  0
  8 35  1  0
 35 41  1  0
 35 36  2  0
 36 37  1  0
 37 38  2  0
 38 39  1  0
 38 40  1  0
 40 41  2  0
M  END
>  <SMILES>  (237) 
O=C(CN1CCN(Cc2ccn(-c3ccc(C(F)(F)F)cn3)c2)CC1)NC(c1ccc(F)cc1)c1ccc(F)cc1

>  <CollectionName>  (237) 
chembl

>  <LOG PLASMA PROTEIN BINDING (RAT) (% unbound)>  (237) 
-0.958607314842

>  <Internal ID>  (237) 


>  <Source>  (237) 
AstraZeneca

$$$$
CHEMBL2
     RDKit          2D

 28 31  0  0  0  0  0  0  0  0999 V2000
   -0.8704    2.5031    0.0000 C   0  0  0  0  0  0  0  0  0  0  0  0
   -0.8675    1.5031    0.0000 O   0  0  0  0  0  0  0  0  0  0  0  0
   -0.0000    1.0056    0.0000 C   0  0  0  0  0  0  0  0  0  0  0  0
    0.8679    1.5135    0.0000 C   0  0  0  0  0  0  0  0  0  0  0  0
    1.7358    1.0056    0.0000 C   0  0  0  0  0  0  0  0  0  0  0  0
    2.6012    1.5123    0.0000 N   0  0  0  0  0  0  0  0  0  0  0  0
    3.4735    1.0079    0.0000 C   0  0  0  0  0  0  0  0  0  0  0  0
    3.4748    0.0023    0.0000 N   0  0  0  0  0  0  0  0  0  0  0  0
    2.6038   -0.4989    0.0000 C   0  0  0  0  0  0  0  0  0  0  0  0
    2.6037   -1.4989    0.0000 N   0  0  0  0  0  0  0  0  0  0  0  0
    1.7371    0.0000    0.0000 C   0  0  0  0  0  0  0  0  0  0  0  0
    0.8679   -0.4977    0.0000 C   0  0  0  0  0  0  0  0  0  0  0  0
    0.0000    0.0000    0.0000 C   0  0  0  0  0  0  0  0  0  0  0  0
   -0.8653   -0.5013    0.0000 O   0  0  0  0  0  0  0  0  0  0  0  0
   -1.7320   -0.0025    0.0000 C   0  0  0  0  0  0  0  0  0  0  0  0
    4.3394    1.5082    0.0000 N   0  0  0  0  0  0  0  0  0  0  0  0
    4.3362    2.5082    0.0000 C   0  0  0  0  0  0  0  0  0  0  0  0
    5.2065    3.0111    0.0000 C   0  0  0  0  0  0  0  0  0  0  0  0
    6.0801    2.5139    0.0000 N   0  0  0  0  0  0  0  0  0  0  0  0
    6.0745    1.5088    0.0000 C   0  0  0  0  0  0  0  0  0  0  0  0
    5.2041    1.0059    0.0000 C   0  0  0  0  0  0  0  0  0  0  0  0
    6.9460    3.0142    0.0000 C   0  0  0  0  0  0  0  0  0  0  0  0
    6.9457    4.0142    0.0000 O   0  0  0  0  0  0  0  0  0  0  0  0
    7.8122    2.5145    0.0000 C   0  0  0  0  0  0  0  0  0  0  0  0
    7.9184    1.5154    0.0000 O   0  0  0  0  0  0  0  0  0  0  0  0
    8.8981    1.3126    0.0000 C   0  0  0  0  0  0  0  0  0  0  0  0
    9.3989    2.1782    0.0000 C   0  0  0  0  0  0  0  0  0  0  0  0
    8.7275    2.9213    0.0000 C   0  0  0  0  0  0  0  0  0  0  0  0
  1  2  1  0
  2  3  1  0
  3 13  2  0
  3  4  1  0
  4  5  2  0
  5 11  1  0
  5  6  1  0
  6  7  2  0
  7  8  1  0
  8  9  2  0
  9 10  1  0
  9 11  1  0
 11 12  2  0
 12 13  1  0
 13 14  1  0
 14 15  1  0
  7 16  1  0
 16 21  1  0
 16 17  1  0
 17 18  1  0
 18 19  1  0
 19 20  1  0
 20 21  1  0
 19 22  1  0
 22 23  2  0
 22 24  1  0
 24 28  2  0
 24 25  1  0
 25 26  1  0
 26 27  2  0
 27 28  1  0
M  END
>  <SMILES>  (238) 
COc1cc2nc(N3CCN(C(=O)c4ccco4)CC3)nc(N)c2cc1OC

>  <CollectionName>  (238) 
chembl

>  <LOG PLASMA PROTEIN BINDING (RAT) (% unbound)>  (238) 
1.33425264233

>  <Internal ID>  (238) 


>  <Source>  (238) 
AstraZeneca

$$$$
CHEMBL1528356
     RDKit          2D

 22 24  0  0  1  0  0  0  0  0999 V2000
   -1.7320   -0.0025    0.0000 C   0  0  0  0  0  0  0  0  0  0  0  0
   -0.8653   -0.5013    0.0000 N   0  0  0  0  0  0  0  0  0  0  0  0
    0.0000    0.0000    0.0000 C   0  0  0  0  0  0  0  0  0  0  0  0
    0.0000    1.0058    0.0000 C   0  0  0  0  0  0  0  0  0  0  0  0
    0.8680    1.5138    0.0000 C   0  0  0  0  0  0  0  0  0  0  0  0
    1.7360    1.0058    0.0000 C   0  0  0  0  0  0  0  0  0  0  0  0
    2.6938    1.3169    0.0000 S   0  0  0  0  0  0  0  0  0  0  0  0
    3.2858    0.5023    0.0000 C   0  0  0  0  0  0  0  0  0  0  0  0
    4.2858    0.5024    0.0000 C   0  0  0  0  0  0  0  0  0  0  0  0
    2.6938   -0.3125    0.0000 N   0  0  0  0  0  0  0  0  0  0  0  0
    1.7360   -0.0012    0.0000 C   0  0  0  0  0  0  0  0  0  0  0  0
    0.8680   -0.4978    0.0000 C   0  0  0  0  0  0  0  0  0  0  0  0
   -0.8639   -1.5013    0.0000 S   0  0  0  0  0  0  0  0  0  0  0  0
   -1.8639   -1.5027    0.0000 O   0  0  0  0  0  0  0  0  0  0  0  0
    0.1361   -1.4998    0.0000 O   0  0  0  0  0  0  0  0  0  0  0  0
   -0.8624   -2.5012    0.0000 C   0  0  0  0  0  0  0  0  0  0  0  0
    0.0103   -3.0000    0.0000 C   0  0  0  0  0  0  0  0  0  0  0  0
    0.0118   -4.0000    0.0000 C   0  0  0  0  0  0  0  0  0  0  0  0
   -0.8506   -4.5064    0.0000 C   0  0  0  0  0  0  0  0  0  0  0  0
   -0.8447   -5.5064    0.0000 C   0  0  0  0  0  0  0  0  0  0  0  0
   -1.7233   -4.0076    0.0000 C   0  0  0  0  0  0  0  0  0  0  0  0
   -1.7336   -3.0025    0.0000 C   0  0  0  0  0  0  0  0  0  0  0  0
  1  2  1  0
  2  3  1  0
  3 12  1  0
  3  4  2  0
  4  5  1  0
  5  6  2  0
  6 11  1  0
  6  7  1  0
  7  8  1  0
  8  9  1  0
  8 10  2  0
 10 11  1  0
 11 12  2  0
  2 13  1  0
 13 14  2  0
 13 15  2  0
 13 16  1  0
 16 22  1  0
 16 17  2  0
 17 18  1  0
 18 19  2  0
 19 20  1  0
 19 21  1  0
 21 22  2  0
M  END
>  <SMILES>  (239) 
Cc1ccc(S(=O)(=O)N(C)c2ccc3sc(C)nc3c2)cc1

>  <CollectionName>  (239) 
chembl

>  <LOG PLASMA PROTEIN BINDING (RAT) (% unbound)>  (239) 
-0.173925197299

>  <Internal ID>  (239) 


>  <Source>  (239) 
AstraZeneca

$$$$
CHEMBL1890471
     RDKit          2D

 22 24  0  0  0  0  0  0  0  0999 V2000
   -0.0811    5.0908    0.0000 N   0  0  0  0  0  0  0  0  0  0  0  0
    0.7878    4.5959    0.0000 C   0  0  0  0  0  0  0  0  0  0  0  0
    1.6509    5.1010    0.0000 O   0  0  0  0  0  0  0  0  0  0  0  0
    0.7938    3.5959    0.0000 C   0  0  0  0  0  0  0  0  0  0  0  0
   -0.0686    3.0895    0.0000 C   0  0  0  0  0  0  0  0  0  0  0  0
   -0.0670    2.0895    0.0000 C   0  0  0  0  0  0  0  0  0  0  0  0
    0.8058    1.5908    0.0000 C   0  0  0  0  0  0  0  0  0  0  0  0
    1.6770    2.0921    0.0000 C   0  0  0  0  0  0  0  0  0  0  0  0
    1.6665    3.0972    0.0000 C   0  0  0  0  0  0  0  0  0  0  0  0
    0.8073    0.5908    0.0000 N   0  0  0  0  0  0  0  0  0  0  0  0
    1.6198    0.0000    0.0000 N   0  0  0  0  0  0  0  0  0  0  0  0
    1.3080   -0.9518    0.0000 N   0  0  0  0  0  0  0  0  0  0  0  0
    0.3065   -0.9518    0.0000 N   0  0  0  0  0  0  0  0  0  0  0  0
    0.0000    0.0000    0.0000 C   0  0  0  0  0  0  0  0  0  0  0  0
   -0.9512    0.3086    0.0000 O   0  0  0  0  0  0  0  0  0  0  0  0
   -1.6941   -0.3608    0.0000 C   0  0  0  0  0  0  0  0  0  0  0  0
   -1.4872   -1.3392    0.0000 C   0  0  0  0  0  0  0  0  0  0  0  0
   -2.2271   -2.0119    0.0000 C   0  0  0  0  0  0  0  0  0  0  0  0
   -3.1837   -1.7030    0.0000 C   0  0  0  0  0  0  0  0  0  0  0  0
   -3.9236   -2.3757    0.0000 Br  0  0  0  0  0  0  0  0  0  0  0  0
   -3.4003   -0.7215    0.0000 C   0  0  0  0  0  0  0  0  0  0  0  0
   -2.6506   -0.0520    0.0000 C   0  0  0  0  0  0  0  0  0  0  0  0
  1  2  1  0
  2  3  2  0
  2  4  1  0
  4  9  2  0
  4  5  1  0
  5  6  2  0
  6  7  1  0
  7  8  2  0
  8  9  1  0
  7 10  1  0
 10 14  1  0
 10 11  1  0
 11 12  2  0
 12 13  1  0
 13 14  2  0
 14 15  1  0
 15 16  1  0
 16 22  1  0
 16 17  2  0
 17 18  1  0
 18 19  2  0
 19 20  1  0
 19 21  1  0
 21 22  2  0
M  END
>  <SMILES>  (240) 
NC(=O)c1ccc(-n2nnnc2Oc2ccc(Br)cc2)cc1

>  <CollectionName>  (240) 
chembl

>  <LOG PLASMA PROTEIN BINDING (RAT) (% unbound)>  (240) 
0.940516484933

>  <Internal ID>  (240) 


>  <Source>  (240) 
AstraZeneca

$$$$
CHEMBL152640
     RDKit          2D

 34 37  0  0  0  0  0  0  0  0999 V2000
    6.3114    1.1997    0.0000 C   0  0  0  0  0  0  0  0  0  0  0  0
    5.6412    1.9419    0.0000 C   0  0  0  0  0  0  0  0  0  0  0  0
    5.9474    2.8939    0.0000 C   0  0  0  0  0  0  0  0  0  0  0  0
    5.2804    3.6390    0.0000 C   0  0  0  0  0  0  0  0  0  0  0  0
    5.5908    4.5896    0.0000 C   0  0  0  0  0  0  0  0  0  0  0  0
    4.2972    3.4300    0.0000 C   0  0  0  0  0  0  0  0  0  0  0  0
    3.6302    4.1751    0.0000 C   0  0  0  0  0  0  0  0  0  0  0  0
    3.9810    2.4759    0.0000 C   0  0  0  0  0  0  0  0  0  0  0  0
    3.0028    2.2680    0.0000 C   0  0  0  0  0  0  0  0  0  0  0  0
    2.6938    1.3169    0.0000 N   0  0  0  0  0  0  0  0  0  0  0  0
    3.2858    0.5023    0.0000 C   0  0  0  0  0  0  0  0  0  0  0  0
    2.6938   -0.3125    0.0000 C   0  0  0  0  0  0  0  0  0  0  0  0
    1.7360   -0.0012    0.0000 C   0  0  0  0  0  0  0  0  0  0  0  0
    0.8680   -0.4978    0.0000 C   0  0  0  0  0  0  0  0  0  0  0  0
    0.8675   -1.4978    0.0000 C   0  0  0  0  0  0  0  0  0  0  0  0
    1.7332   -1.9983    0.0000 N   0  0  0  0  0  0  0  0  0  0  0  0
    1.7327   -2.9983    0.0000 N   0  0  0  0  0  0  0  0  0  0  0  0
    2.5985   -3.4987    0.0000 C   0  0  0  0  0  0  0  0  0  0  0  0
    3.4648   -2.9992    0.0000 O   0  0  0  0  0  0  0  0  0  0  0  0
    2.5980   -4.4987    0.0000 C   0  0  0  0  0  0  0  0  0  0  0  0
    1.7257   -4.9983    0.0000 C   0  0  0  0  0  0  0  0  0  0  0  0
    1.7251   -5.9983    0.0000 C   0  0  0  0  0  0  0  0  0  0  0  0
    2.5880   -6.5038    0.0000 C   0  0  0  0  0  0  0  0  0  0  0  0
    2.5831   -7.5038    0.0000 O   0  0  0  0  0  0  0  0  0  0  0  0
    3.4602   -6.0043    0.0000 C   0  0  0  0  0  0  0  0  0  0  0  0
    3.4697   -4.9992    0.0000 C   0  0  0  0  0  0  0  0  0  0  0  0
    4.3230   -6.5098    0.0000 C   0  0  0  0  0  0  0  0  0  0  0  0
    5.1858   -7.0154    0.0000 N   0  0  0  0  0  0  0  0  0  0  0  0
    0.0000    0.0000    0.0000 C   0  0  0  0  0  0  0  0  0  0  0  0
    0.0000    1.0058    0.0000 C   0  0  0  0  0  0  0  0  0  0  0  0
    0.8680    1.5138    0.0000 C   0  0  0  0  0  0  0  0  0  0  0  0
    1.7360    1.0058    0.0000 C   0  0  0  0  0  0  0  0  0  0  0  0
    4.6579    1.7329    0.0000 C   0  0  0  0  0  0  0  0  0  0  0  0
    4.3517    0.7809    0.0000 C   0  0  0  0  0  0  0  0  0  0  0  0
  1  2  1  0
  2 33  2  0
  2  3  1  0
  3  4  2  0
  4  5  1  0
  4  6  1  0
  6  7  1  0
  6  8  2  0
  8  9  1  0
  9 10  1  0
 10 32  1  0
 10 11  1  0
 11 12  2  0
 12 13  1  0
 13 32  2  0
 13 14  1  0
 14 15  1  0
 15 16  2  0
 16 17  1  0
 17 18  1  0
 18 19  2  0
 18 20  1  0
 20 26  1  0
 20 21  2  0
 21 22  1  0
 22 23  2  0
 23 24  1  0
 23 25  1  0
 25 26  2  0
 25 27  1  0
 27 28  3  0
 14 29  2  0
 29 30  1  0
 30 31  2  0
 31 32  1  0
  8 33  1  0
 33 34  1  0
M  END
>  <SMILES>  (241) 
Cc1cc(C)c(C)c(Cn2ccc3c(/C=N/NC(=O)c4ccc(O)c(C#N)c4)cccc32)c1C

>  <CollectionName>  (241) 
chembl

>  <LOG PLASMA PROTEIN BINDING (RAT) (% unbound)>  (241) 
-0.49485002168

>  <Internal ID>  (241) 


>  <Source>  (241) 
AstraZeneca

$$$$
CHEMBL511115
     RDKit          2D

 25 27  0  0  1  0  0  0  0  0999 V2000
    2.5988   -1.5013    0.0000 C   0  0  0  0  0  0  0  0  0  0  0  0
    2.6003   -0.5013    0.0000 O   0  0  0  0  0  0  0  0  0  0  0  0
    1.7350   -0.0000    0.0000 C   0  0  0  0  0  0  0  0  0  0  0  0
    0.8675   -0.4975    0.0000 C   0  0  0  0  0  0  0  0  0  0  0  0
    0.0000    0.0000    0.0000 C   0  0  0  0  0  0  0  0  0  0  0  0
    0.0000    1.0052    0.0000 C   0  0  0  0  0  0  0  0  0  0  0  0
    0.8675    1.5129    0.0000 C   0  0  0  0  0  0  0  0  0  0  0  0
    1.7350    1.0052    0.0000 C   0  0  0  0  0  0  0  0  0  0  0  0
    2.6025    1.5026    0.0000 O   0  0  0  0  0  0  0  0  0  0  0  0
    2.6054    2.5026    0.0000 C   0  0  0  0  0  0  0  0  0  0  0  0
    1.7974    3.0945    0.0000 C   0  0  0  0  0  0  0  0  0  0  0  0
    2.1084    4.0464    0.0000 C   0  0  0  0  0  0  0  0  0  0  0  0
    3.1084    4.0422    0.0000 C   0  0  0  0  0  0  0  0  0  0  0  0
    3.4192    3.0914    0.0000 C   0  0  0  0  0  0  0  0  0  0  0  0
   -0.8675    1.5026    0.0000 C   0  0  0  0  0  0  0  0  0  0  0  0
   -1.2066    0.5564    0.0000 C   0  0  0  0  0  0  0  0  0  0  0  0
   -2.1911    0.3807    0.0000 C   0  0  0  0  0  0  0  0  0  0  0  0
   -2.8399    1.1418    0.0000 C   0  0  0  0  0  0  0  0  0  0  0  0
   -2.5008    2.0880    0.0000 C   0  0  0  0  0  0  0  0  0  0  0  0
   -1.5128    2.2733    0.0000 C   0  0  0  0  0  0  0  0  0  0  0  0
   -3.8236    0.9618    0.0000 C   0  0  0  0  0  0  0  0  0  0  0  0
   -4.4712    1.7238    0.0000 O   0  0  0  0  0  0  0  0  0  0  0  0
   -4.1596    0.0200    0.0000 O   0  0  0  0  0  0  0  0  0  0  0  0
   -0.2255    2.2693    0.0000 C   0  0  0  0  0  0  0  0  0  0  0  0
    0.4166    3.0360    0.0000 N   0  0  0  0  0  0  0  0  0  0  0  0
  1  2  1  0
  2  3  1  0
  3  8  2  0
  3  4  1  0
  4  5  2  0
  5  6  1  0
  6  7  2  0
  7  8  1  0
  8  9  1  0
  9 10  1  0
 10 14  1  0
 10 11  1  0
 11 12  1  0
 12 13  1  0
 13 14  1  0
  6 15  1  0
 15 20  1  0
 15 16  1  0
 16 17  1  0
 17 18  1  0
 18 19  1  0
 19 20  1  0
 18 21  1  1
 21 22  2  0
 21 23  1  0
 15 24  1  1
 24 25  3  0
M  END
>  <SMILES>  (242) 
COc1ccc([C@]2(C#N)CC[C@@H](C(=O)O)CC2)cc1OC1CCCC1

>  <CollectionName>  (242) 
chembl

>  <LOG PLASMA PROTEIN BINDING (RAT) (% unbound)>  (242) 
0.782472624166

>  <Internal ID>  (242) 


>  <Source>  (242) 
AstraZeneca

$$$$
CHEMBL518924
     RDKit          2D

 26 29  0  0  1  0  0  0  0  0999 V2000
   -3.4594    3.0185    0.0000 N   0  0  0  0  0  0  0  0  0  0  0  0
   -2.5934    2.5185    0.0000 C   0  0  0  0  0  0  0  0  0  0  0  0
   -1.7274    3.0185    0.0000 C   0  0  0  0  0  0  0  0  0  0  0  0
   -0.8614    2.5185    0.0000 C   0  0  0  0  0  0  0  0  0  0  0  0
    0.0047    3.0185    0.0000 C   0  0  0  0  0  0  0  0  0  0  0  0
    0.8707    2.5185    0.0000 N   0  0  0  0  0  0  0  0  0  0  0  0
    1.7367    3.0185    0.0000 C   0  0  0  0  0  0  0  0  0  0  0  0
    1.7367    4.0185    0.0000 C   0  0  0  0  0  0  0  0  0  0  0  0
    2.5515    4.6105    0.0000 N   0  0  0  0  0  0  0  0  0  0  0  0
    2.2401    5.5683    0.0000 C   0  0  0  0  0  0  0  0  0  0  0  0
    2.7367    6.4364    0.0000 C   0  0  0  0  0  0  0  0  0  0  0  0
    2.2387    7.3043    0.0000 C   0  0  0  0  0  0  0  0  0  0  0  0
    1.2329    7.3043    0.0000 C   0  0  0  0  0  0  0  0  0  0  0  0
    0.7251    6.4362    0.0000 C   0  0  0  0  0  0  0  0  0  0  0  0
    1.2330    5.5683    0.0000 C   0  0  0  0  0  0  0  0  0  0  0  0
    0.9221    4.6105    0.0000 N   0  0  0  0  0  0  0  0  0  0  0  0
    0.8707    1.5185    0.0000 C   0  0  0  0  0  0  0  0  0  0  0  0
    0.0000    1.0089    0.0000 C   0  0  0  0  0  0  0  0  0  0  0  0
    0.0000    0.0000    0.0000 C   0  0  0  0  0  0  0  0  0  0  0  0
    0.8707   -0.4993    0.0000 C   0  0  0  0  0  0  0  0  0  0  0  0
    1.7371   -0.0000    0.0000 C   0  0  0  0  0  0  0  0  0  0  0  0
    2.6039   -0.5053    0.0000 C   0  0  0  0  0  0  0  0  0  0  0  0
    3.4805   -0.0073    0.0000 C   0  0  0  0  0  0  0  0  0  0  0  0
    3.4848    1.0014    0.0000 C   0  0  0  0  0  0  0  0  0  0  0  0
    2.6125    1.5125    0.0000 N   0  0  0  0  0  0  0  0  0  0  0  0
    1.7414    1.0089    0.0000 C   0  0  0  0  0  0  0  0  0  0  0  0
  1  2  1  0
  2  3  1  0
  3  4  1  0
  4  5  1  0
  5  6  1  0
  6  7  1  0
  7  8  1  0
  8 16  1  0
  8  9  2  0
  9 10  1  0
 10 15  2  0
 10 11  1  0
 11 12  2  0
 12 13  1  0
 13 14  2  0
 14 15  1  0
 15 16  1  0
 17  6  1  6
 17 26  1  0
 17 18  1  0
 18 19  1  0
 19 20  1  0
 20 21  1  0
 21 26  2  0
 21 22  1  0
 22 23  2  0
 23 24  1  0
 24 25  2  0
 25 26  1  0
M  END
>  <SMILES>  (243) 
NCCCCN(Cc1nc2ccccc2[nH]1)[C@H]1CCCc2cccnc21

>  <CollectionName>  (243) 
chembl

>  <LOG PLASMA PROTEIN BINDING (RAT) (% unbound)>  (243) 
1.38827886346

>  <Internal ID>  (243) 


>  <Source>  (243) 
AstraZeneca

$$$$
CHEMBL21731
     RDKit          2D

 21 24  0  0  0  0  0  0  0  0999 V2000
    5.3677    6.1119    0.0000 C   0  0  0  0  0  0  0  0  0  0  0  0
    5.3677    5.1119    0.0000 N   0  0  0  0  0  0  0  0  0  0  0  0
    4.5016    4.6119    0.0000 C   0  0  0  0  0  0  0  0  0  0  0  0
    4.5016    3.6119    0.0000 C   0  0  0  0  0  0  0  0  0  0  0  0
    3.6356    3.1119    0.0000 C   0  0  0  0  0  0  0  0  0  0  0  0
    3.6356    2.1119    0.0000 C   0  0  0  0  0  0  0  0  0  0  0  0
    4.4159    1.3678    0.0000 C   0  0  0  0  0  0  0  0  0  0  0  0
    4.3877   -0.0354    0.0000 C   0  0  0  0  0  0  0  0  0  0  0  0
    3.6356   -0.6944    0.0000 C   0  0  0  0  0  0  0  0  0  0  0  0
    2.4246   -0.0000    0.0000 C   0  0  0  0  0  0  0  0  0  0  0  0
    1.2160   -0.7053    0.0000 C   0  0  0  0  0  0  0  0  0  0  0  0
    0.0000    0.0000    0.0000 C   0  0  0  0  0  0  0  0  0  0  0  0
    0.0000    1.4032    0.0000 C   0  0  0  0  0  0  0  0  0  0  0  0
    1.2160    2.1010    0.0000 C   0  0  0  0  0  0  0  0  0  0  0  0
    2.4246    1.4032    0.0000 C   0  0  0  0  0  0  0  0  0  0  0  0
    4.8406   -0.0000    0.0000 C   0  0  0  0  0  0  0  0  0  0  0  0
    6.0461   -0.7026    0.0000 C   0  0  0  0  0  0  0  0  0  0  0  0
    7.2653   -0.0100    0.0000 C   0  0  0  0  0  0  0  0  0  0  0  0
    7.2710    1.3930    0.0000 C   0  0  0  0  0  0  0  0  0  0  0  0
    6.0579    2.1036    0.0000 C   0  0  0  0  0  0  0  0  0  0  0  0
    4.8466    1.4032    0.0000 C   0  0  0  0  0  0  0  0  0  0  0  0
  1  2  1  0
  2  3  1  0
  3  4  1  0
  4  5  1  0
  5  6  1  0
  6 15  1  0
  6 21  1  0
  6  7  1  0
  7  8  1  0
  8  9  1  0
  9 10  1  0
 10 15  2  0
 10 11  1  0
 11 12  2  0
 12 13  1  0
 13 14  2  0
 14 15  1  0
  9 16  1  0
 16 21  2  0
 16 17  1  0
 17 18  2  0
 18 19  1  0
 19 20  2  0
 20 21  1  0
M  END
>  <SMILES>  (244) 
CNCCCC12CCC(c3ccccc31)c1ccccc12

>  <CollectionName>  (244) 
chembl

>  <LOG PLASMA PROTEIN BINDING (RAT) (% unbound)>  (244) 
0.894316062684

>  <Internal ID>  (244) 


>  <Source>  (244) 
AstraZeneca

$$$$
CHEMBL140684
     RDKit          2D

 27 28  0  0  1  0  0  0  0  0999 V2000
    3.4670    1.0001    0.0000 C   0  0  0  0  0  0  0  0  0  0  0  0
    2.6025    1.5026    0.0000 N   0  0  0  0  0  0  0  0  0  0  0  0
    1.7350    1.0052    0.0000 C   0  0  0  0  0  0  0  0  0  0  0  0
    1.7350   -0.0000    0.0000 C   0  0  0  0  0  0  0  0  0  0  0  0
    0.8675   -0.4975    0.0000 C   0  0  0  0  0  0  0  0  0  0  0  0
    0.0000    0.0000    0.0000 C   0  0  0  0  0  0  0  0  0  0  0  0
    0.0000    1.0052    0.0000 C   0  0  0  0  0  0  0  0  0  0  0  0
    0.8675    1.5129    0.0000 C   0  0  0  0  0  0  0  0  0  0  0  0
    2.6054    2.5026    0.0000 S   0  0  0  0  0  0  0  0  0  0  0  0
    3.6054    2.4997    0.0000 O   0  0  0  0  0  0  0  0  0  0  0  0
    1.6055    2.5056    0.0000 O   0  0  0  0  0  0  0  0  0  0  0  0
    2.6084    3.5026    0.0000 C   0  0  0  0  0  0  0  0  0  0  0  0
    1.7379    4.0052    0.0000 C   0  0  0  0  0  0  0  0  0  0  0  0
    1.7408    5.0053    0.0000 C   0  0  0  0  0  0  0  0  0  0  0  0
    2.6054    5.5078    0.0000 C   0  0  0  0  0  0  0  0  0  0  0  0
    2.6039    6.5078    0.0000 N   0  0  0  0  0  0  0  0  0  0  0  0
    1.7372    7.0065    0.0000 C   0  0  0  0  0  0  0  0  0  0  0  0
    0.8719    6.5053    0.0000 O   0  0  0  0  0  0  0  0  0  0  0  0
    1.7357    8.0065    0.0000 C   0  0  0  0  0  0  0  0  0  0  0  0
    2.7357    8.0080    0.0000 C   0  0  0  0  0  0  0  0  0  0  0  0
    0.7357    8.0051    0.0000 O   0  0  0  0  0  0  0  0  0  0  0  0
    1.7343    9.0065    0.0000 C   0  0  0  0  0  0  0  0  0  0  0  0
    0.7343    9.0051    0.0000 F   0  0  0  0  0  0  0  0  0  0  0  0
    2.7343    9.0080    0.0000 F   0  0  0  0  0  0  0  0  0  0  0  0
    1.7328   10.0065    0.0000 F   0  0  0  0  0  0  0  0  0  0  0  0
    3.4759    5.0052    0.0000 C   0  0  0  0  0  0  0  0  0  0  0  0
    3.4818    4.0001    0.0000 C   0  0  0  0  0  0  0  0  0  0  0  0
  1  2  1  0
  2  3  1  0
  3  8  1  0
  3  4  2  0
  4  5  1  0
  5  6  2  0
  6  7  1  0
  7  8  2  0
  2  9  1  0
  9 10  2  0
  9 11  2  0
  9 12  1  0
 12 27  1  0
 12 13  2  0
 13 14  1  0
 14 15  2  0
 15 16  1  0
 16 17  1  0
 17 18  2  0
 17 19  1  0
 19 20  1  0
 19 21  1  0
 19 22  1  0
 22 23  1  0
 22 24  1  0
 22 25  1  0
 15 26  1  0
 26 27  2  0
M  END
>  <SMILES>  (245) 
CN(c1ccccc1)S(=O)(=O)c1ccc(NC(=O)C(C)(O)C(F)(F)F)cc1

>  <CollectionName>  (245) 
chembl

>  <LOG PLASMA PROTEIN BINDING (RAT) (% unbound)>  (245) 
0.380211241712

>  <Internal ID>  (245) 


>  <Source>  (245) 
AstraZeneca

$$$$
CHEMBL1807829
     RDKit          2D

 32 34  0  0  1  0  0  0  0  0999 V2000
    1.7340    3.0138    0.0000 O   0  0  0  0  0  0  0  0  0  0  0  0
    0.8680    2.5138    0.0000 C   0  0  0  0  0  0  0  0  0  0  0  0
    0.0020    3.0138    0.0000 C   0  0  0  0  0  0  0  0  0  0  0  0
    0.0020    4.0138    0.0000 N   0  0  0  0  0  0  0  0  0  0  0  0
   -0.8641    4.5138    0.0000 C   0  0  0  0  0  0  0  0  0  0  0  0
   -0.8640    5.5138    0.0000 C   0  0  0  0  0  0  0  0  0  0  0  0
   -1.7301    6.0138    0.0000 S   0  0  0  0  0  0  0  0  0  0  0  0
   -1.7301    7.0138    0.0000 C   0  0  0  0  0  0  0  0  0  0  0  0
   -2.5961    7.5138    0.0000 C   0  0  0  0  0  0  0  0  0  0  0  0
   -2.5961    8.5138    0.0000 C   0  0  0  0  0  0  0  0  0  0  0  0
   -3.4621    9.0138    0.0000 N   0  0  0  0  0  0  0  0  0  0  0  0
   -3.4621   10.0138    0.0000 C   0  0  0  0  0  0  0  0  0  0  0  0
   -4.3282   10.5138    0.0000 C   0  0  0  0  0  0  0  0  0  0  0  0
   -4.3281   11.5138    0.0000 C   0  0  0  0  0  0  0  0  0  0  0  0
   -3.4561   12.0138    0.0000 C   0  0  0  0  0  0  0  0  0  0  0  0
   -3.4561   13.0139    0.0000 C   0  0  0  0  0  0  0  0  0  0  0  0
   -4.3192   13.5189    0.0000 C   0  0  0  0  0  0  0  0  0  0  0  0
   -5.1912   13.0189    0.0000 C   0  0  0  0  0  0  0  0  0  0  0  0
   -6.0543   13.5240    0.0000 Cl  0  0  0  0  0  0  0  0  0  0  0  0
   -5.2001   12.0138    0.0000 C   0  0  0  0  0  0  0  0  0  0  0  0
   -6.0676   11.5164    0.0000 Cl  0  0  0  0  0  0  0  0  0  0  0  0
    0.8680    1.5138    0.0000 C   0  0  0  0  0  0  0  0  0  0  0  0
    0.0000    1.0058    0.0000 C   0  0  0  0  0  0  0  0  0  0  0  0
    0.0000    0.0000    0.0000 C   0  0  0  0  0  0  0  0  0  0  0  0
    0.8680   -0.4978    0.0000 C   0  0  0  0  0  0  0  0  0  0  0  0
    0.8675   -1.4978    0.0000 O   0  0  0  0  0  0  0  0  0  0  0  0
    1.7360   -0.0012    0.0000 C   0  0  0  0  0  0  0  0  0  0  0  0
    2.6938   -0.3125    0.0000 N   0  0  0  0  0  0  0  0  0  0  0  0
    3.2858    0.5023    0.0000 C   0  0  0  0  0  0  0  0  0  0  0  0
    4.2858    0.5024    0.0000 O   0  0  0  0  0  0  0  0  0  0  0  0
    2.6938    1.3169    0.0000 S   0  0  0  0  0  0  0  0  0  0  0  0
    1.7360    1.0058    0.0000 C   0  0  0  0  0  0  0  0  0  0  0  0
  2  1  1  6
  2  3  1  0
  3  4  1  0
  4  5  1  0
  5  6  1  0
  6  7  1  0
  7  8  1  0
  8  9  1  0
  9 10  1  0
 10 11  1  0
 11 12  1  0
 12 13  1  0
 13 14  1  0
 14 20  1  0
 14 15  2  0
 15 16  1  0
 16 17  2  0
 17 18  1  0
 18 19  1  0
 18 20  2  0
 20 21  1  0
  2 22  1  0
 22 32  1  0
 22 23  2  0
 23 24  1  0
 24 25  2  0
 25 26  1  0
 25 27  1  0
 27 32  2  0
 27 28  1  0
 28 29  1  0
 29 30  2  0
 29 31  1  0
 31 32  1  0
M  END
>  <SMILES>  (246) 
O=c1[nH]c2c(O)ccc([C@@H](O)CNCCSCCCNCCc3cccc(Cl)c3Cl)c2s1

>  <CollectionName>  (246) 
chembl

>  <LOG PLASMA PROTEIN BINDING (RAT) (% unbound)>  (246) 
0.922206277439

>  <Internal ID>  (246) 


>  <Source>  (246) 
AstraZeneca

$$$$
CHEMBL1818187
     RDKit          2D

 35 38  0  0  1  0  0  0  0  0999 V2000
   -4.3907   -8.4538    0.0000 C   0  0  0  0  0  0  0  0  0  0  0  0
   -3.5197   -7.9625    0.0000 C   0  0  0  0  0  0  0  0  0  0  0  0
   -4.0111   -7.0915    0.0000 C   0  0  0  0  0  0  0  0  0  0  0  0
   -3.0284   -8.8335    0.0000 C   0  0  0  0  0  0  0  0  0  0  0  0
   -2.6488   -7.4711    0.0000 O   0  0  0  0  0  0  0  0  0  0  0  0
   -2.6388   -6.4712    0.0000 C   0  0  0  0  0  0  0  0  0  0  0  0
   -3.4998   -5.9626    0.0000 O   0  0  0  0  0  0  0  0  0  0  0  0
   -1.7678   -5.9799    0.0000 N   0  0  0  0  0  0  0  0  0  0  0  0
   -1.7578   -4.9799    0.0000 C   0  0  0  0  0  0  0  0  0  0  0  0
   -0.8869   -4.4886    0.0000 C   0  0  0  0  0  0  0  0  0  0  0  0
   -0.8798   -3.4834    0.0000 C   0  0  0  0  0  0  0  0  0  0  0  0
   -0.0088   -2.9920    0.0000 C   0  0  0  0  0  0  0  0  0  0  0  0
    0.8552   -3.4956    0.0000 C   0  0  0  0  0  0  0  0  0  0  0  0
    1.7240   -3.0004    0.0000 C   0  0  0  0  0  0  0  0  0  0  0  0
    1.7295   -2.0004    0.0000 N   0  0  0  0  0  0  0  0  0  0  0  0
    2.5983   -1.5053    0.0000 C   0  0  0  0  0  0  0  0  0  0  0  0
    3.4615   -2.0101    0.0000 O   0  0  0  0  0  0  0  0  0  0  0  0
    2.6039   -0.5053    0.0000 C   0  0  0  0  0  0  0  0  0  0  0  0
    3.4805   -0.0073    0.0000 C   0  0  0  0  0  0  0  0  0  0  0  0
    3.4848    1.0014    0.0000 C   0  0  0  0  0  0  0  0  0  0  0  0
    2.6125    1.5125    0.0000 N   0  0  0  0  0  0  0  0  0  0  0  0
    1.7414    1.0089    0.0000 C   0  0  0  0  0  0  0  0  0  0  0  0
    0.8707    1.5185    0.0000 C   0  0  0  0  0  0  0  0  0  0  0  0
    0.0000    1.0089    0.0000 C   0  0  0  0  0  0  0  0  0  0  0  0
    0.0000    0.0000    0.0000 C   0  0  0  0  0  0  0  0  0  0  0  0
    0.8707   -0.4993    0.0000 C   0  0  0  0  0  0  0  0  0  0  0  0
    1.7371    0.0000    0.0000 C   0  0  0  0  0  0  0  0  0  0  0  0
    4.3535    1.4968    0.0000 C   0  0  0  0  0  0  0  0  0  0  0  0
    4.3559    2.5020    0.0000 C   0  0  0  0  0  0  0  0  0  0  0  0
    5.2246    2.9974    0.0000 C   0  0  0  0  0  0  0  0  0  0  0  0
    6.0909    2.4978    0.0000 C   0  0  0  0  0  0  0  0  0  0  0  0
    6.0885    1.4926    0.0000 C   0  0  0  0  0  0  0  0  0  0  0  0
    5.2198    0.9870    0.0000 C   0  0  0  0  0  0  0  0  0  0  0  0
    0.8481   -4.5008    0.0000 C   0  0  0  0  0  0  0  0  0  0  0  0
   -0.0230   -5.0024    0.0000 C   0  0  0  0  0  0  0  0  0  0  0  0
  1  2  1  0
  2  3  1  0
  2  4  1  0
  2  5  1  0
  5  6  1  0
  6  7  2  0
  6  8  1  0
  8  9  1  0
 10  9  1  6
 10 35  1  0
 10 11  1  0
 11 12  1  0
 12 13  1  0
 13 14  1  1
 14 15  1  0
 15 16  1  0
 16 17  2  0
 16 18  1  0
 18 27  1  0
 18 19  2  0
 19 20  1  0
 20 21  2  0
 21 22  1  0
 22 27  2  0
 22 23  1  0
 23 24  2  0
 24 25  1  0
 25 26  2  0
 26 27  1  0
 20 28  1  0
 28 33  1  0
 28 29  2  0
 29 30  1  0
 30 31  2  0
 31 32  1  0
 32 33  2  0
 13 34  1  0
 34 35  1  0
M  END
>  <SMILES>  (247) 
CC(C)(C)OC(=O)NC[C@H]1CC[C@H](CNC(=O)c2cc(-c3ccccc3)nc3ccccc23)CC1

>  <CollectionName>  (247) 
chembl

>  <LOG PLASMA PROTEIN BINDING (RAT) (% unbound)>  (247) 
-0.301029995664

>  <Internal ID>  (247) 


>  <Source>  (247) 
AstraZeneca

$$$$
CHEMBL1818295
     RDKit          2D

 38 41  0  0  1  0  0  0  0  0999 V2000
   -4.3907   -8.4538    0.0000 C   0  0  0  0  0  0  0  0  0  0  0  0
   -3.5197   -7.9625    0.0000 C   0  0  0  0  0  0  0  0  0  0  0  0
   -4.0111   -7.0915    0.0000 C   0  0  0  0  0  0  0  0  0  0  0  0
   -3.0284   -8.8335    0.0000 C   0  0  0  0  0  0  0  0  0  0  0  0
   -2.6488   -7.4711    0.0000 O   0  0  0  0  0  0  0  0  0  0  0  0
   -2.6388   -6.4712    0.0000 C   0  0  0  0  0  0  0  0  0  0  0  0
   -3.4998   -5.9626    0.0000 O   0  0  0  0  0  0  0  0  0  0  0  0
   -1.7678   -5.9799    0.0000 N   0  0  0  0  0  0  0  0  0  0  0  0
   -1.7578   -4.9799    0.0000 C   0  0  0  0  0  0  0  0  0  0  0  0
   -0.8869   -4.4886    0.0000 C   0  0  0  0  0  0  0  0  0  0  0  0
   -0.8798   -3.4834    0.0000 C   0  0  0  0  0  0  0  0  0  0  0  0
   -0.0088   -2.9920    0.0000 C   0  0  0  0  0  0  0  0  0  0  0  0
    0.8552   -3.4956    0.0000 C   0  0  0  0  0  0  0  0  0  0  0  0
    1.7240   -3.0004    0.0000 C   0  0  0  0  0  0  0  0  0  0  0  0
    1.7295   -2.0004    0.0000 N   0  0  0  0  0  0  0  0  0  0  0  0
    2.5983   -1.5053    0.0000 C   0  0  0  0  0  0  0  0  0  0  0  0
    3.4615   -2.0101    0.0000 O   0  0  0  0  0  0  0  0  0  0  0  0
    2.6039   -0.5053    0.0000 C   0  0  0  0  0  0  0  0  0  0  0  0
    3.4805   -0.0073    0.0000 C   0  0  0  0  0  0  0  0  0  0  0  0
    3.4848    1.0014    0.0000 C   0  0  0  0  0  0  0  0  0  0  0  0
    2.6125    1.5125    0.0000 N   0  0  0  0  0  0  0  0  0  0  0  0
    1.7414    1.0089    0.0000 C   0  0  0  0  0  0  0  0  0  0  0  0
    0.8707    1.5185    0.0000 C   0  0  0  0  0  0  0  0  0  0  0  0
    0.0000    1.0089    0.0000 C   0  0  0  0  0  0  0  0  0  0  0  0
    0.0000    0.0000    0.0000 C   0  0  0  0  0  0  0  0  0  0  0  0
    0.8707   -0.4993    0.0000 C   0  0  0  0  0  0  0  0  0  0  0  0
    1.7371    0.0000    0.0000 C   0  0  0  0  0  0  0  0  0  0  0  0
    4.3535    1.4968    0.0000 N   0  0  0  0  0  0  0  0  0  0  0  0
    5.2242    0.9947    0.0000 C   0  0  0  0  0  0  0  0  0  0  0  0
    6.0974    1.4926    0.0000 C   0  0  0  0  0  0  0  0  0  0  0  0
    6.0999    2.4927    0.0000 C   0  0  0  0  0  0  0  0  0  0  0  0
    6.9686    2.9880    0.0000 C   0  0  0  0  0  0  0  0  0  0  0  0
    7.8319    2.4834    0.0000 C   0  0  0  0  0  0  0  0  0  0  0  0
    8.7006    2.9788    0.0000 O   0  0  0  0  0  0  0  0  0  0  0  0
    5.2380    2.9998    0.0000 C   0  0  0  0  0  0  0  0  0  0  0  0
    4.3648    2.5019    0.0000 C   0  0  0  0  0  0  0  0  0  0  0  0
    0.8481   -4.5008    0.0000 C   0  0  0  0  0  0  0  0  0  0  0  0
   -0.0230   -5.0024    0.0000 C   0  0  0  0  0  0  0  0  0  0  0  0
  1  2  1  0
  2  3  1  0
  2  4  1  0
  2  5  1  0
  5  6  1  0
  6  7  2  0
  6  8  1  0
  8  9  1  0
 10  9  1  6
 10 38  1  0
 10 11  1  0
 11 12  1  0
 12 13  1  0
 13 14  1  1
 14 15  1  0
 15 16  1  0
 16 17  2  0
 16 18  1  0
 18 27  1  0
 18 19  2  0
 19 20  1  0
 20 21  2  0
 21 22  1  0
 22 27  2  0
 22 23  1  0
 23 24  2  0
 24 25  1  0
 25 26  2  0
 26 27  1  0
 20 28  1  0
 28 36  1  0
 28 29  1  0
 29 30  1  0
 30 31  1  0
 31 32  1  0
 32 33  1  0
 33 34  1  0
 31 35  1  0
 35 36  1  0
 13 37  1  0
 37 38  1  0
M  END
>  <SMILES>  (248) 
CC(C)(C)OC(=O)NC[C@H]1CC[C@H](CNC(=O)c2cc(N3CCC(CCO)CC3)nc3ccccc23)CC1

>  <CollectionName>  (248) 
chembl

>  <LOG PLASMA PROTEIN BINDING (RAT) (% unbound)>  (248) 
-0.00436480540245

>  <Internal ID>  (248) 


>  <Source>  (248) 
AstraZeneca

$$$$
CHEMBL1818296
     RDKit          2D

 40 43  0  0  1  0  0  0  0  0999 V2000
    8.7059    3.9788    0.0000 C   0  0  0  0  0  0  0  0  0  0  0  0
    8.7006    2.9788    0.0000 N   0  0  0  0  0  0  0  0  0  0  0  0
    9.5639    2.4742    0.0000 C   0  0  0  0  0  0  0  0  0  0  0  0
    7.8319    2.4834    0.0000 C   0  0  0  0  0  0  0  0  0  0  0  0
    6.9686    2.9880    0.0000 C   0  0  0  0  0  0  0  0  0  0  0  0
    6.0999    2.4927    0.0000 C   0  0  0  0  0  0  0  0  0  0  0  0
    6.0974    1.4926    0.0000 C   0  0  0  0  0  0  0  0  0  0  0  0
    5.2242    0.9947    0.0000 C   0  0  0  0  0  0  0  0  0  0  0  0
    4.3535    1.4968    0.0000 N   0  0  0  0  0  0  0  0  0  0  0  0
    4.3648    2.5019    0.0000 C   0  0  0  0  0  0  0  0  0  0  0  0
    5.2380    2.9998    0.0000 C   0  0  0  0  0  0  0  0  0  0  0  0
    3.4848    1.0014    0.0000 C   0  0  0  0  0  0  0  0  0  0  0  0
    3.4805   -0.0073    0.0000 C   0  0  0  0  0  0  0  0  0  0  0  0
    2.6039   -0.5053    0.0000 C   0  0  0  0  0  0  0  0  0  0  0  0
    2.5983   -1.5053    0.0000 C   0  0  0  0  0  0  0  0  0  0  0  0
    3.4615   -2.0101    0.0000 O   0  0  0  0  0  0  0  0  0  0  0  0
    1.7295   -2.0004    0.0000 N   0  0  0  0  0  0  0  0  0  0  0  0
    1.7240   -3.0004    0.0000 C   0  0  0  0  0  0  0  0  0  0  0  0
    0.8552   -3.4956    0.0000 C   0  0  0  0  0  0  0  0  0  0  0  0
   -0.0088   -2.9920    0.0000 C   0  0  0  0  0  0  0  0  0  0  0  0
   -0.8798   -3.4834    0.0000 C   0  0  0  0  0  0  0  0  0  0  0  0
   -0.8869   -4.4886    0.0000 C   0  0  0  0  0  0  0  0  0  0  0  0
   -1.7578   -4.9799    0.0000 C   0  0  0  0  0  0  0  0  0  0  0  0
   -1.7678   -5.9799    0.0000 N   0  0  0  0  0  0  0  0  0  0  0  0
   -2.6388   -6.4712    0.0000 C   0  0  0  0  0  0  0  0  0  0  0  0
   -3.4998   -5.9626    0.0000 O   0  0  0  0  0  0  0  0  0  0  0  0
   -2.6488   -7.4711    0.0000 O   0  0  0  0  0  0  0  0  0  0  0  0
   -3.5197   -7.9625    0.0000 C   0  0  0  0  0  0  0  0  0  0  0  0
   -4.3907   -8.4538    0.0000 C   0  0  0  0  0  0  0  0  0  0  0  0
   -4.0111   -7.0915    0.0000 C   0  0  0  0  0  0  0  0  0  0  0  0
   -3.0284   -8.8335    0.0000 C   0  0  0  0  0  0  0  0  0  0  0  0
   -0.0230   -5.0024    0.0000 C   0  0  0  0  0  0  0  0  0  0  0  0
    0.8481   -4.5008    0.0000 C   0  0  0  0  0  0  0  0  0  0  0  0
    1.7371    0.0000    0.0000 C   0  0  0  0  0  0  0  0  0  0  0  0
    0.8707   -0.4993    0.0000 C   0  0  0  0  0  0  0  0  0  0  0  0
    0.0000    0.0000    0.0000 C   0  0  0  0  0  0  0  0  0  0  0  0
    0.0000    1.0089    0.0000 C   0  0  0  0  0  0  0  0  0  0  0  0
    0.8707    1.5185    0.0000 C   0  0  0  0  0  0  0  0  0  0  0  0
    1.7414    1.0089    0.0000 C   0  0  0  0  0  0  0  0  0  0  0  0
    2.6125    1.5125    0.0000 N   0  0  0  0  0  0  0  0  0  0  0  0
  1  2  1  0
  2  3  1  0
  2  4  1  0
  4  5  1  0
  5  6  1  0
  6 11  1  0
  6  7  1  0
  7  8  1  0
  8  9  1  0
  9 10  1  0
 10 11  1  0
  9 12  1  0
 12 40  1  0
 12 13  2  0
 13 14  1  0
 14 15  1  0
 15 16  2  0
 15 17  1  0
 17 18  1  0
 19 18  1  1
 19 33  1  0
 19 20  1  0
 20 21  1  0
 21 22  1  0
 22 23  1  6
 23 24  1  0
 24 25  1  0
 25 26  2  0
 25 27  1  0
 27 28  1  0
 28 29  1  0
 28 30  1  0
 28 31  1  0
 22 32  1  0
 32 33  1  0
 14 34  2  0
 34 39  1  0
 34 35  1  0
 35 36  2  0
 36 37  1  0
 37 38  2  0
 38 39  1  0
 39 40  2  0
M  END
>  <SMILES>  (249) 
CN(C)CCC1CCN(c2cc(C(=O)NC[C@H]3CC[C@H](CNC(=O)OC(C)(C)C)CC3)c3ccccc3n2)CC1

>  <CollectionName>  (249) 
chembl

>  <LOG PLASMA PROTEIN BINDING (RAT) (% unbound)>  (249) 
0.602059991328

>  <Internal ID>  (249) 


>  <Source>  (249) 
AstraZeneca

$$$$
CHEMBL1818297
     RDKit          2D

 38 41  0  0  1  0  0  0  0  0999 V2000
   -4.3907   -8.4538    0.0000 C   0  0  0  0  0  0  0  0  0  0  0  0
   -3.5197   -7.9625    0.0000 C   0  0  0  0  0  0  0  0  0  0  0  0
   -4.0111   -7.0915    0.0000 C   0  0  0  0  0  0  0  0  0  0  0  0
   -3.0284   -8.8335    0.0000 C   0  0  0  0  0  0  0  0  0  0  0  0
   -2.6488   -7.4711    0.0000 O   0  0  0  0  0  0  0  0  0  0  0  0
   -2.6388   -6.4712    0.0000 C   0  0  0  0  0  0  0  0  0  0  0  0
   -3.4998   -5.9626    0.0000 O   0  0  0  0  0  0  0  0  0  0  0  0
   -1.7678   -5.9799    0.0000 N   0  0  0  0  0  0  0  0  0  0  0  0
   -1.7578   -4.9799    0.0000 C   0  0  0  0  0  0  0  0  0  0  0  0
   -0.8869   -4.4886    0.0000 C   0  0  0  0  0  0  0  0  0  0  0  0
   -0.8798   -3.4834    0.0000 C   0  0  0  0  0  0  0  0  0  0  0  0
   -0.0088   -2.9920    0.0000 C   0  0  0  0  0  0  0  0  0  0  0  0
    0.8552   -3.4956    0.0000 C   0  0  0  0  0  0  0  0  0  0  0  0
    1.7240   -3.0004    0.0000 C   0  0  0  0  0  0  0  0  0  0  0  0
    1.7295   -2.0004    0.0000 N   0  0  0  0  0  0  0  0  0  0  0  0
    2.5983   -1.5053    0.0000 C   0  0  0  0  0  0  0  0  0  0  0  0
    3.4615   -2.0101    0.0000 O   0  0  0  0  0  0  0  0  0  0  0  0
    2.6039   -0.5053    0.0000 C   0  0  0  0  0  0  0  0  0  0  0  0
    3.4805   -0.0073    0.0000 C   0  0  0  0  0  0  0  0  0  0  0  0
    3.4848    1.0014    0.0000 C   0  0  0  0  0  0  0  0  0  0  0  0
    2.6125    1.5125    0.0000 N   0  0  0  0  0  0  0  0  0  0  0  0
    1.7414    1.0089    0.0000 C   0  0  0  0  0  0  0  0  0  0  0  0
    0.8707    1.5185    0.0000 C   0  0  0  0  0  0  0  0  0  0  0  0
    0.0000    1.0089    0.0000 C   0  0  0  0  0  0  0  0  0  0  0  0
    0.0000    0.0000    0.0000 C   0  0  0  0  0  0  0  0  0  0  0  0
    0.8707   -0.4993    0.0000 C   0  0  0  0  0  0  0  0  0  0  0  0
    1.7371    0.0000    0.0000 C   0  0  0  0  0  0  0  0  0  0  0  0
    4.3535    1.4968    0.0000 N   0  0  0  0  0  0  0  0  0  0  0  0
    5.2242    0.9947    0.0000 C   0  0  0  0  0  0  0  0  0  0  0  0
    6.0974    1.4926    0.0000 C   0  0  0  0  0  0  0  0  0  0  0  0
    6.0999    2.4927    0.0000 C   0  0  0  0  0  0  0  0  0  0  0  0
    6.9686    2.9880    0.0000 C   0  0  0  0  0  0  0  0  0  0  0  0
    7.8319    2.4834    0.0000 C   0  0  0  0  0  0  0  0  0  0  0  0
    8.7006    2.9788    0.0000 N   0  0  0  0  0  0  0  0  0  0  0  0
    5.2380    2.9998    0.0000 C   0  0  0  0  0  0  0  0  0  0  0  0
    4.3648    2.5019    0.0000 C   0  0  0  0  0  0  0  0  0  0  0  0
    0.8481   -4.5008    0.0000 C   0  0  0  0  0  0  0  0  0  0  0  0
   -0.0230   -5.0024    0.0000 C   0  0  0  0  0  0  0  0  0  0  0  0
  1  2  1  0
  2  3  1  0
  2  4  1  0
  2  5  1  0
  5  6  1  0
  6  7  2  0
  6  8  1  0
  8  9  1  0
 10  9  1  6
 10 38  1  0
 10 11  1  0
 11 12  1  0
 12 13  1  0
 13 14  1  1
 14 15  1  0
 15 16  1  0
 16 17  2  0
 16 18  1  0
 18 27  1  0
 18 19  2  0
 19 20  1  0
 20 21  2  0
 21 22  1  0
 22 27  2  0
 22 23  1  0
 23 24  2  0
 24 25  1  0
 25 26  2  0
 26 27  1  0
 20 28  1  0
 28 36  1  0
 28 29  1  0
 29 30  1  0
 30 31  1  0
 31 32  1  0
 32 33  1  0
 33 34  1  0
 31 35  1  0
 35 36  1  0
 13 37  1  0
 37 38  1  0
M  END
>  <SMILES>  (250) 
CC(C)(C)OC(=O)NC[C@H]1CC[C@H](CNC(=O)c2cc(N3CCC(CCN)CC3)nc3ccccc23)CC1

>  <CollectionName>  (250) 
chembl

>  <LOG PLASMA PROTEIN BINDING (RAT) (% unbound)>  (250) 
0.506505032405

>  <Internal ID>  (250) 


>  <Source>  (250) 
AstraZeneca

$$$$
CHEMBL1818300
     RDKit          2D

 42 46  0  0  1  0  0  0  0  0999 V2000
   -4.3907   -8.4538    0.0000 C   0  0  0  0  0  0  0  0  0  0  0  0
   -3.5197   -7.9625    0.0000 C   0  0  0  0  0  0  0  0  0  0  0  0
   -4.0111   -7.0915    0.0000 C   0  0  0  0  0  0  0  0  0  0  0  0
   -3.0284   -8.8335    0.0000 C   0  0  0  0  0  0  0  0  0  0  0  0
   -2.6488   -7.4711    0.0000 O   0  0  0  0  0  0  0  0  0  0  0  0
   -2.6388   -6.4712    0.0000 C   0  0  0  0  0  0  0  0  0  0  0  0
   -3.4998   -5.9626    0.0000 O   0  0  0  0  0  0  0  0  0  0  0  0
   -1.7678   -5.9799    0.0000 N   0  0  0  0  0  0  0  0  0  0  0  0
   -1.7578   -4.9799    0.0000 C   0  0  0  0  0  0  0  0  0  0  0  0
   -0.8869   -4.4886    0.0000 C   0  0  0  0  0  0  0  0  0  0  0  0
   -0.8798   -3.4834    0.0000 C   0  0  0  0  0  0  0  0  0  0  0  0
   -0.0088   -2.9920    0.0000 C   0  0  0  0  0  0  0  0  0  0  0  0
    0.8552   -3.4956    0.0000 C   0  0  0  0  0  0  0  0  0  0  0  0
    1.7240   -3.0004    0.0000 C   0  0  0  0  0  0  0  0  0  0  0  0
    1.7295   -2.0004    0.0000 N   0  0  0  0  0  0  0  0  0  0  0  0
    2.5983   -1.5053    0.0000 C   0  0  0  0  0  0  0  0  0  0  0  0
    3.4615   -2.0101    0.0000 O   0  0  0  0  0  0  0  0  0  0  0  0
    2.6039   -0.5053    0.0000 C   0  0  0  0  0  0  0  0  0  0  0  0
    3.4805   -0.0073    0.0000 C   0  0  0  0  0  0  0  0  0  0  0  0
    3.4848    1.0014    0.0000 C   0  0  0  0  0  0  0  0  0  0  0  0
    2.6125    1.5125    0.0000 N   0  0  0  0  0  0  0  0  0  0  0  0
    1.7414    1.0089    0.0000 C   0  0  0  0  0  0  0  0  0  0  0  0
    0.8707    1.5185    0.0000 C   0  0  0  0  0  0  0  0  0  0  0  0
    0.0000    1.0089    0.0000 C   0  0  0  0  0  0  0  0  0  0  0  0
    0.0000    0.0000    0.0000 C   0  0  0  0  0  0  0  0  0  0  0  0
    0.8707   -0.4993    0.0000 C   0  0  0  0  0  0  0  0  0  0  0  0
    1.7371    0.0000    0.0000 C   0  0  0  0  0  0  0  0  0  0  0  0
    4.3535    1.4968    0.0000 N   0  0  0  0  0  0  0  0  0  0  0  0
    5.2242    0.9947    0.0000 C   0  0  0  0  0  0  0  0  0  0  0  0
    6.0974    1.4926    0.0000 C   0  0  0  0  0  0  0  0  0  0  0  0
    6.0999    2.4927    0.0000 C   0  0  0  0  0  0  0  0  0  0  0  0
    6.9686    2.9880    0.0000 C   0  0  0  0  0  0  0  0  0  0  0  0
    7.8319    2.4834    0.0000 C   0  0  0  0  0  0  0  0  0  0  0  0
    8.7006    2.9788    0.0000 N   0  0  0  0  0  0  0  0  0  0  0  0
    9.6650    2.7149    0.0000 C   0  0  0  0  0  0  0  0  0  0  0  0
    9.9290    3.6793    0.0000 C   0  0  0  0  0  0  0  0  0  0  0  0
   10.7977    4.1747    0.0000 O   0  0  0  0  0  0  0  0  0  0  0  0
    8.9645    3.9433    0.0000 C   0  0  0  0  0  0  0  0  0  0  0  0
    5.2380    2.9998    0.0000 C   0  0  0  0  0  0  0  0  0  0  0  0
    4.3648    2.5019    0.0000 C   0  0  0  0  0  0  0  0  0  0  0  0
    0.8481   -4.5008    0.0000 C   0  0  0  0  0  0  0  0  0  0  0  0
   -0.0230   -5.0024    0.0000 C   0  0  0  0  0  0  0  0  0  0  0  0
  1  2  1  0
  2  3  1  0
  2  4  1  0
  2  5  1  0
  5  6  1  0
  6  7  2  0
  6  8  1  0
  8  9  1  0
 10  9  1  6
 10 42  1  0
 10 11  1  0
 11 12  1  0
 12 13  1  0
 13 14  1  1
 14 15  1  0
 15 16  1  0
 16 17  2  0
 16 18  1  0
 18 27  1  0
 18 19  2  0
 19 20  1  0
 20 21  2  0
 21 22  1  0
 22 27  2  0
 22 23  1  0
 23 24  2  0
 24 25  1  0
 25 26  2  0
 26 27  1  0
 20 28  1  0
 28 40  1  0
 28 29  1  0
 29 30  1  0
 30 31  1  0
 31 32  1  0
 32 33  1  0
 33 34  1  0
 34 38  1  0
 34 35  1  0
 35 36  1  0
 36 37  1  0
 36 38  1  0
 31 39  1  0
 39 40  1  0
 13 41  1  0
 41 42  1  0
M  END
>  <SMILES>  (251) 
CC(C)(C)OC(=O)NC[C@H]1CC[C@H](CNC(=O)c2cc(N3CCC(CCN4CC(O)C4)CC3)nc3ccccc23)CC1

>  <CollectionName>  (251) 
chembl

>  <LOG PLASMA PROTEIN BINDING (RAT) (% unbound)>  (251) 
0.515873843712

>  <Internal ID>  (251) 


>  <Source>  (251) 
AstraZeneca

$$$$
CHEMBL481212
     RDKit          2D

 32 35  0  0  0  0  0  0  0  0999 V2000
   -2.5995    1.5012    0.0000 C   0  0  0  0  0  0  0  0  0  0  0  0
   -1.7320    1.0038    0.0000 C   0  0  0  0  0  0  0  0  0  0  0  0
   -0.8675    1.5063    0.0000 O   0  0  0  0  0  0  0  0  0  0  0  0
    0.0000    1.0089    0.0000 C   0  0  0  0  0  0  0  0  0  0  0  0
    0.8707    1.5185    0.0000 C   0  0  0  0  0  0  0  0  0  0  0  0
    1.7414    1.0089    0.0000 C   0  0  0  0  0  0  0  0  0  0  0  0
    2.6125    1.5125    0.0000 N   0  0  0  0  0  0  0  0  0  0  0  0
    3.4848    1.0014    0.0000 C   0  0  0  0  0  0  0  0  0  0  0  0
    3.4805   -0.0073    0.0000 C   0  0  0  0  0  0  0  0  0  0  0  0
    4.3437   -0.5122    0.0000 C   0  0  0  0  0  0  0  0  0  0  0  0
    4.3381   -1.5121    0.0000 O   0  0  0  0  0  0  0  0  0  0  0  0
    5.2125   -0.0170    0.0000 N   0  0  0  0  0  0  0  0  0  0  0  0
    2.6039   -0.5053    0.0000 C   0  0  0  0  0  0  0  0  0  0  0  0
    2.5941   -2.2553    0.0000 N   0  0  0  0  0  0  0  0  0  0  0  0
    1.7253   -2.7504    0.0000 C   0  0  0  0  0  0  0  0  0  0  0  0
    0.8592   -2.2405    0.0000 C   0  0  0  0  0  0  0  0  0  0  0  0
   -0.0097   -2.7459    0.0000 C   0  0  0  0  0  0  0  0  0  0  0  0
   -0.8758   -2.2462    0.0000 C   0  0  0  0  0  0  0  0  0  0  0  0
   -0.0123   -3.7511    0.0000 C   0  0  0  0  0  0  0  0  0  0  0  0
    0.8539   -4.2509    0.0000 C   0  0  0  0  0  0  0  0  0  0  0  0
    1.7227   -3.7556    0.0000 C   0  0  0  0  0  0  0  0  0  0  0  0
    2.5867   -4.2592    0.0000 F   0  0  0  0  0  0  0  0  0  0  0  0
    1.7371   -0.0000    0.0000 C   0  0  0  0  0  0  0  0  0  0  0  0
    0.8707   -0.4993    0.0000 C   0  0  0  0  0  0  0  0  0  0  0  0
    0.0000    0.0000    0.0000 C   0  0  0  0  0  0  0  0  0  0  0  0
   -1.5143   -0.8772    0.0000 N   0  0  0  0  0  0  0  0  0  0  0  0
   -2.3884   -0.3811    0.0000 C   0  0  0  0  0  0  0  0  0  0  0  0
   -3.2582   -0.8850    0.0000 C   0  0  0  0  0  0  0  0  0  0  0  0
   -3.2538   -1.8850    0.0000 N   0  0  0  0  0  0  0  0  0  0  0  0
   -4.1191   -2.3862    0.0000 C   0  0  0  0  0  0  0  0  0  0  0  0
   -2.3885   -2.3862    0.0000 C   0  0  0  0  0  0  0  0  0  0  0  0
   -1.5187   -1.8824    0.0000 C   0  0  0  0  0  0  0  0  0  0  0  0
  1  2  1  0
  2  3  1  0
  3  4  1  0
  4 25  2  0
  4  5  1  0
  5  6  2  0
  6 23  1  0
  6  7  1  0
  7  8  2  0
  8  9  1  0
  9 10  1  0
 10 11  2  0
 10 12  1  0
  9 13  2  0
 13 14  1  0
 14 15  1  0
 15 21  1  0
 15 16  2  0
 16 17  1  0
 17 18  1  0
 17 19  2  0
 19 20  1  0
 20 21  2  0
 21 22  1  0
 13 23  1  0
 23 24  2  0
 24 25  1  0
 25 26  1  0
 26 32  1  0
 26 27  1  0
 27 28  1  0
 28 29  1  0
 29 30  1  0
 29 31  1  0
 31 32  1  0
M  END
>  <SMILES>  (252) 
CCOc1cc2ncc(C(N)=O)c(Nc3cc(C)ccc3F)c2cc1N1CCN(C)CC1

>  <CollectionName>  (252) 
chembl

>  <LOG PLASMA PROTEIN BINDING (RAT) (% unbound)>  (252) 
1.03059972197

>  <Internal ID>  (252) 


>  <Source>  (252) 
AstraZeneca

$$$$
CHEMBL481611
     RDKit          2D

 36 38  0  0  1  0  0  0  0  0999 V2000
    3.5936   -1.5003    0.0000 C   0  0  0  0  0  0  0  0  0  0  0  0
    2.5936   -1.4973    0.0000 C   0  0  0  0  0  0  0  0  0  0  0  0
    2.5907   -2.4973    0.0000 C   0  0  0  0  0  0  0  0  0  0  0  0
    1.5936   -1.4944    0.0000 F   0  0  0  0  0  0  0  0  0  0  0  0
    2.5966   -0.4973    0.0000 C   0  0  0  0  0  0  0  0  0  0  0  0
    3.4641    0.0001    0.0000 C   0  0  0  0  0  0  0  0  0  0  0  0
    3.4670    1.0001    0.0000 N   0  0  0  0  0  0  0  0  0  0  0  0
    2.6025    1.5026    0.0000 C   0  0  0  0  0  0  0  0  0  0  0  0
    1.7350    1.0052    0.0000 C   0  0  0  0  0  0  0  0  0  0  0  0
    1.7350    0.0000    0.0000 C   0  0  0  0  0  0  0  0  0  0  0  0
    0.8675   -0.4975    0.0000 C   0  0  0  0  0  0  0  0  0  0  0  0
    0.0000    0.0000    0.0000 C   0  0  0  0  0  0  0  0  0  0  0  0
   -0.0000    1.0052    0.0000 C   0  0  0  0  0  0  0  0  0  0  0  0
    0.8675    1.5129    0.0000 C   0  0  0  0  0  0  0  0  0  0  0  0
   -0.8653   -0.5013    0.0000 C   0  0  0  0  0  0  0  0  0  0  0  0
   -1.7328   -0.0038    0.0000 C   0  0  0  0  0  0  0  0  0  0  0  0
   -2.6003   -0.5013    0.0000 C   0  0  0  0  0  0  0  0  0  0  0  0
   -2.6003   -1.5065    0.0000 C   0  0  0  0  0  0  0  0  0  0  0  0
   -1.7328   -2.0142    0.0000 C   0  0  0  0  0  0  0  0  0  0  0  0
   -0.8653   -1.5065    0.0000 C   0  0  0  0  0  0  0  0  0  0  0  0
   -3.4678   -2.0039    0.0000 S   0  0  0  0  0  0  0  0  0  0  0  0
   -3.9652   -1.1364    0.0000 O   0  0  0  0  0  0  0  0  0  0  0  0
   -2.9704   -2.8714    0.0000 O   0  0  0  0  0  0  0  0  0  0  0  0
   -4.3353   -2.5013    0.0000 C   0  0  0  0  0  0  0  0  0  0  0  0
    2.6054    2.5026    0.0000 C   0  0  0  0  0  0  0  0  0  0  0  0
    1.6055    2.5056    0.0000 F   0  0  0  0  0  0  0  0  0  0  0  0
    3.6054    2.4997    0.0000 F   0  0  0  0  0  0  0  0  0  0  0  0
    2.6084    3.5026    0.0000 F   0  0  0  0  0  0  0  0  0  0  0  0
    4.3286   -0.5025    0.0000 C   0  0  0  0  0  0  0  0  0  0  0  0
    5.1961   -0.0050    0.0000 O   0  0  0  0  0  0  0  0  0  0  0  0
    4.3257   -1.5025    0.0000 N   0  0  0  0  0  0  0  0  0  0  0  0
    5.1902   -2.0050    0.0000 C   0  0  0  0  0  0  0  0  0  0  0  0
    5.8309   -2.7753    0.0000 C   0  0  0  0  0  0  0  0  0  0  0  0
    4.8455   -2.9457    0.0000 C   0  0  0  0  0  0  0  0  0  0  0  0
    5.8358   -1.2413    0.0000 C   0  0  0  0  0  0  0  0  0  0  0  0
    6.4814   -0.4777    0.0000 N   0  0  0  0  0  0  0  0  0  0  0  0
  1  2  1  0
  2  3  1  0
  2  4  1  0
  2  5  1  0
  6  5  1  6
  6  7  1  0
  8  7  1  1
  8  9  1  0
  9 14  1  0
  9 10  2  0
 10 11  1  0
 11 12  2  0
 12 13  1  0
 13 14  2  0
 12 15  1  0
 15 20  1  0
 15 16  2  0
 16 17  1  0
 17 18  2  0
 18 19  1  0
 19 20  2  0
 18 21  1  0
 21 22  2  0
 21 23  2  0
 21 24  1  0
  8 25  1  0
 25 26  1  0
 25 27  1  0
 25 28  1  0
  6 29  1  0
 29 30  2  0
 29 31  1  0
 31 32  1  0
 32 34  1  0
 32 33  1  0
 33 34  1  0
 32 35  1  0
 35 36  3  0
M  END
>  <SMILES>  (253) 
CC(C)(F)C[C@H](N[C@@H](c1ccc(-c2ccc(S(C)(=O)=O)cc2)cc1)C(F)(F)F)C(=O)NC1(C#N)CC1

>  <CollectionName>  (253) 
chembl

>  <LOG PLASMA PROTEIN BINDING (RAT) (% unbound)>  (253) 
0.563481085394

>  <Internal ID>  (253) 


>  <Source>  (253) 
AstraZeneca

$$$$
CHEMBL482552
     RDKit          2D

 35 40  0  0  0  0  0  0  0  0999 V2000
    5.2056    1.0084    0.0000 O   0  0  0  0  0  0  0  0  0  0  0  0
    4.3394    1.5081    0.0000 C   0  0  0  0  0  0  0  0  0  0  0  0
    4.3391    2.5081    0.0000 N   0  0  0  0  0  0  0  0  0  0  0  0
    5.2050    3.0084    0.0000 C   0  0  0  0  0  0  0  0  0  0  0  0
    6.0719    2.5098    0.0000 C   0  0  0  0  0  0  0  0  0  0  0  0
    6.9400    3.0063    0.0000 C   0  0  0  0  0  0  0  0  0  0  0  0
    6.9412    4.0115    0.0000 C   0  0  0  0  0  0  0  0  0  0  0  0
    7.8093    4.5079    0.0000 C   0  0  0  0  0  0  0  0  0  0  0  0
    8.6732    4.0044    0.0000 N   0  0  0  0  0  0  0  0  0  0  0  0
    9.5487    4.4982    0.0000 C   0  0  0  0  0  0  0  0  0  0  0  0
   10.4172    3.9920    0.0000 C   0  0  0  0  0  0  0  0  0  0  0  0
   10.4101    2.9920    0.0000 N   0  0  0  0  0  0  0  0  0  0  0  0
    9.5435    2.4930    0.0000 C   0  0  0  0  0  0  0  0  0  0  0  0
    8.6750    2.9992    0.0000 C   0  0  0  0  0  0  0  0  0  0  0  0
    6.0743    4.5202    0.0000 C   0  0  0  0  0  0  0  0  0  0  0  0
    5.2062    4.0136    0.0000 C   0  0  0  0  0  0  0  0  0  0  0  0
    4.3393    4.5120    0.0000 C   0  0  0  0  0  0  0  0  0  0  0  0
    4.2322    5.5135    0.0000 N   0  0  0  0  0  0  0  0  0  0  0  0
    3.2467    5.7210    0.0000 C   0  0  0  0  0  0  0  0  0  0  0  0
    2.7417    6.5841    0.0000 C   0  0  0  0  0  0  0  0  0  0  0  0
    1.7410    6.5851    0.0000 C   0  0  0  0  0  0  0  0  0  0  0  0
    1.2397    5.7131    0.0000 C   0  0  0  0  0  0  0  0  0  0  0  0
    1.7391    4.8402    0.0000 C   0  0  0  0  0  0  0  0  0  0  0  0
    2.7447    4.8479    0.0000 C   0  0  0  0  0  0  0  0  0  0  0  0
    3.4201    4.1009    0.0000 N   0  0  0  0  0  0  0  0  0  0  0  0
    3.4735    1.0079    0.0000 C   0  0  0  0  0  0  0  0  0  0  0  0
    3.4748    0.0022    0.0000 C   0  0  0  0  0  0  0  0  0  0  0  0
    2.6038   -0.4989    0.0000 N   0  0  0  0  0  0  0  0  0  0  0  0
    1.7371    0.0000    0.0000 C   0  0  0  0  0  0  0  0  0  0  0  0
    0.8679   -0.4978    0.0000 C   0  0  0  0  0  0  0  0  0  0  0  0
    0.0000    0.0000    0.0000 C   0  0  0  0  0  0  0  0  0  0  0  0
    0.0000    1.0057    0.0000 C   0  0  0  0  0  0  0  0  0  0  0  0
    0.8679    1.5135    0.0000 C   0  0  0  0  0  0  0  0  0  0  0  0
    1.7358    1.0057    0.0000 C   0  0  0  0  0  0  0  0  0  0  0  0
    2.6012    1.5124    0.0000 N   0  0  0  0  0  0  0  0  0  0  0  0
  1  2  2  0
  2  3  1  0
  3  4  1  0
  4 16  1  0
  4  5  2  0
  5  6  1  0
  6  7  2  0
  7  8  1  0
  8  9  1  0
  9 14  1  0
  9 10  1  0
 10 11  1  0
 11 12  1  0
 12 13  1  0
 13 14  1  0
  7 15  1  0
 15 16  2  0
 16 17  1  0
 17 25  1  0
 17 18  2  0
 18 19  1  0
 19 24  2  0
 19 20  1  0
 20 21  2  0
 21 22  1  0
 22 23  2  0
 23 24  1  0
 24 25  1  0
  2 26  1  0
 26 35  1  0
 26 27  2  0
 27 28  1  0
 28 29  2  0
 29 34  1  0
 29 30  1  0
 30 31  2  0
 31 32  1  0
 32 33  2  0
 33 34  1  0
 34 35  2  0
M  END
>  <SMILES>  (254) 
O=C(Nc1ccc(CN2CCNCC2)cc1-c1nc2ccccc2[nH]1)c1cnc2ccccc2n1

>  <CollectionName>  (254) 
chembl

>  <LOG PLASMA PROTEIN BINDING (RAT) (% unbound)>  (254) 
0.903632516084

>  <Internal ID>  (254) 


>  <Source>  (254) 
AstraZeneca

$$$$
CHEMBL2338409
     RDKit          2D

 27 28  0  0  1  0  0  0  0  0999 V2000
    3.9573    6.5481    0.0000 C   0  0  0  0  0  0  0  0  0  0  0  0
    3.0920    6.0468    0.0000 C   0  0  0  0  0  0  0  0  0  0  0  0
    3.5933    5.1815    0.0000 C   0  0  0  0  0  0  0  0  0  0  0  0
    2.5907    6.9120    0.0000 C   0  0  0  0  0  0  0  0  0  0  0  0
    2.2267    5.5454    0.0000 N   0  0  0  0  0  0  0  0  0  0  0  0
    2.2283    4.5454    0.0000 C   0  0  0  0  0  0  0  0  0  0  0  0
    3.0951    4.0468    0.0000 O   0  0  0  0  0  0  0  0  0  0  0  0
    1.3630    4.0441    0.0000 N   0  0  0  0  0  0  0  0  0  0  0  0
    1.3645    3.0441    0.0000 C   0  0  0  0  0  0  0  0  0  0  0  0
    0.4993    2.5428    0.0000 C   0  0  0  0  0  0  0  0  0  0  0  0
    0.5008    1.5428    0.0000 N   0  0  0  0  0  0  0  0  0  0  0  0
   -0.3065    0.9519    0.0000 C   0  0  0  0  0  0  0  0  0  0  0  0
    0.0000    0.0000    0.0000 C   0  0  0  0  0  0  0  0  0  0  0  0
    1.0015   -0.0000    0.0000 C   0  0  0  0  0  0  0  0  0  0  0  0
    1.5883   -0.8097    0.0000 C   0  0  0  0  0  0  0  0  0  0  0  0
    2.5830   -0.7064    0.0000 N   0  0  0  0  0  0  0  0  0  0  0  0
    3.1698   -1.5161    0.0000 C   0  0  0  0  0  0  0  0  0  0  0  0
    2.7620   -2.4292    0.0000 O   0  0  0  0  0  0  0  0  0  0  0  0
    4.1644   -1.4127    0.0000 C   0  0  0  0  0  0  0  0  0  0  0  0
    4.5696   -0.4985    0.0000 C   0  0  0  0  0  0  0  0  0  0  0  0
    5.5694   -0.3946    0.0000 C   0  0  0  0  0  0  0  0  0  0  0  0
    5.9746    0.5197    0.0000 Cl  0  0  0  0  0  0  0  0  0  0  0  0
    6.1641   -1.2050    0.0000 C   0  0  0  0  0  0  0  0  0  0  0  0
    5.7487   -2.1203    0.0000 C   0  0  0  0  0  0  0  0  0  0  0  0
    6.3332   -2.9318    0.0000 Cl  0  0  0  0  0  0  0  0  0  0  0  0
    4.7489   -2.2242    0.0000 C   0  0  0  0  0  0  0  0  0  0  0  0
    1.3133    0.9519    0.0000 C   0  0  0  0  0  0  0  0  0  0  0  0
  1  2  1  0
  2  3  1  0
  2  4  1  0
  2  5  1  0
  5  6  1  0
  6  7  2  0
  6  8  1  0
  8  9  1  0
  9 10  1  0
 10 11  1  0
 11 27  1  0
 11 12  1  0
 12 13  1  0
 13 14  1  0
 14 15  1  0
 15 16  1  0
 16 17  1  0
 17 18  2  0
 17 19  1  0
 19 26  1  0
 19 20  2  0
 20 21  1  0
 21 22  1  0
 21 23  2  0
 23 24  1  0
 24 25  1  0
 24 26  2  0
 14 27  1  0
M  END
>  <SMILES>  (255) 
CC(C)(C)NC(=O)NCCN1CCC(CNC(=O)c2cc(Cl)cc(Cl)c2)C1

>  <CollectionName>  (255) 
chembl

>  <LOG PLASMA PROTEIN BINDING (RAT) (% unbound)>  (255) 
1.14457420761

>  <Internal ID>  (255) 


>  <Source>  (255) 
AstraZeneca

$$$$
CHEMBL2312920
     RDKit          2D

 26 28  0  0  1  0  0  0  0  0999 V2000
    5.2050    2.9950    0.0000 C   0  0  0  0  0  0  0  0  0  0  0  0
    4.3404    3.4975    0.0000 C   0  0  0  0  0  0  0  0  0  0  0  0
    3.4729    3.0001    0.0000 C   0  0  0  0  0  0  0  0  0  0  0  0
    3.4700    2.0001    0.0000 N   0  0  0  0  0  0  0  0  0  0  0  0
    4.3345    1.4975    0.0000 C   0  0  0  0  0  0  0  0  0  0  0  0
    4.3286    0.4923    0.0000 C   0  0  0  0  0  0  0  0  0  0  0  0
    5.1932   -0.0103    0.0000 C   0  0  0  0  0  0  0  0  0  0  0  0
    6.0636    0.4821    0.0000 C   0  0  0  0  0  0  0  0  0  0  0  0
    6.0695    1.4873    0.0000 C   0  0  0  0  0  0  0  0  0  0  0  0
    5.2050    2.0001    0.0000 C   0  0  0  0  0  0  0  0  0  0  0  0
    6.9399    1.9796    0.0000 C   0  0  0  0  0  0  0  0  0  0  0  0
    7.8103    2.4719    0.0000 N   0  0  0  0  0  0  0  0  0  0  0  0
    2.6025    1.5026    0.0000 P   0  0  0  0  0  0  0  0  0  0  0  0
    3.0999    0.6351    0.0000 O   0  0  0  0  0  0  0  0  0  0  0  0
    1.7350    1.0052    0.0000 C   0  0  0  0  0  0  0  0  0  0  0  0
    1.7350   -0.0000    0.0000 C   0  0  0  0  0  0  0  0  0  0  0  0
    0.8675   -0.4975    0.0000 C   0  0  0  0  0  0  0  0  0  0  0  0
    0.0000    0.0000    0.0000 C   0  0  0  0  0  0  0  0  0  0  0  0
    0.0000    1.0052    0.0000 C   0  0  0  0  0  0  0  0  0  0  0  0
    0.8675    1.5129    0.0000 C   0  0  0  0  0  0  0  0  0  0  0  0
    1.7320    3.0208    0.0000 C   0  0  0  0  0  0  0  0  0  0  0  0
    0.7268    3.0208    0.0000 C   0  0  0  0  0  0  0  0  0  0  0  0
    0.2293    3.8883    0.0000 C   0  0  0  0  0  0  0  0  0  0  0  0
    0.7268    4.7558    0.0000 C   0  0  0  0  0  0  0  0  0  0  0  0
    1.7320    4.7558    0.0000 C   0  0  0  0  0  0  0  0  0  0  0  0
    2.2397    3.8883    0.0000 C   0  0  0  0  0  0  0  0  0  0  0  0
  1  2  1  0
  2  3  1  0
  3  4  1  0
  4  5  1  0
  5 10  1  0
  5  6  2  0
  6  7  1  0
  7  8  2  0
  8  9  1  0
  9 10  2  0
  9 11  1  0
 11 12  3  0
  4 13  1  0
 13 14  2  0
 13 15  1  0
 15 20  1  0
 15 16  2  0
 16 17  1  0
 17 18  2  0
 18 19  1  0
 19 20  2  0
 13 21  1  0
 21 26  1  0
 21 22  2  0
 22 23  1  0
 23 24  2  0
 24 25  1  0
 25 26  2  0
M  END
>  <SMILES>  (256) 
CCCN(c1cccc(C#N)c1)P(=O)(c1ccccc1)c1ccccc1

>  <CollectionName>  (256) 
chembl

>  <LOG PLASMA PROTEIN BINDING (RAT) (% unbound)>  (256) 
0.801403710017

>  <Internal ID>  (256) 


>  <Source>  (256) 
AstraZeneca

$$$$
CHEMBL2316382
     RDKit          2D

 35 38  0  0  1  0  0  0  0  0999 V2000
   -1.7379    3.0001    0.0000 C   0  0  0  0  0  0  0  0  0  0  0  0
   -1.7350    2.0001    0.0000 O   0  0  0  0  0  0  0  0  0  0  0  0
   -0.8675    1.5027    0.0000 C   0  0  0  0  0  0  0  0  0  0  0  0
   -0.8675    0.4975    0.0000 C   0  0  0  0  0  0  0  0  0  0  0  0
    0.0000    0.0000    0.0000 C   0  0  0  0  0  0  0  0  0  0  0  0
    0.8675    0.4975    0.0000 C   0  0  0  0  0  0  0  0  0  0  0  0
    1.7328   -0.0038    0.0000 N   0  0  0  0  0  0  0  0  0  0  0  0
    1.7313   -1.0038    0.0000 C   0  0  0  0  0  0  0  0  0  0  0  0
    0.8646   -1.5025    0.0000 O   0  0  0  0  0  0  0  0  0  0  0  0
    2.5966   -1.5050    0.0000 C   0  0  0  0  0  0  0  0  0  0  0  0
    2.5986   -2.5127    0.0000 C   0  0  0  0  0  0  0  0  0  0  0  0
    3.4696   -3.0156    0.0000 C   0  0  0  0  0  0  0  0  0  0  0  0
    4.3384   -2.5108    0.0000 C   0  0  0  0  0  0  0  0  0  0  0  0
    5.2051   -3.0096    0.0000 C   0  0  0  0  0  0  0  0  0  0  0  0
    5.2064   -4.0096    0.0000 S   0  0  0  0  0  0  0  0  0  0  0  0
    4.3411   -4.5108    0.0000 C   0  0  0  0  0  0  0  0  0  0  0  0
    6.0731   -4.5085    0.0000 O   0  0  0  0  0  0  0  0  0  0  0  0
    4.3385   -1.5108    0.0000 C   0  0  0  0  0  0  0  0  0  0  0  0
    5.2036   -1.0058    0.0000 C   0  0  0  0  0  0  0  0  0  0  0  0
    5.2052   -0.0053    0.0000 C   0  0  0  0  0  0  0  0  0  0  0  0
    4.3336    0.4965    0.0000 C   0  0  0  0  0  0  0  0  0  0  0  0
    3.4605   -0.0023    0.0000 C   0  0  0  0  0  0  0  0  0  0  0  0
    3.4676   -1.0078    0.0000 C   0  0  0  0  0  0  0  0  0  0  0  0
    0.8675    1.5027    0.0000 C   0  0  0  0  0  0  0  0  0  0  0  0
   -0.0000    2.0104    0.0000 N   0  0  0  0  0  0  0  0  0  0  0  0
    1.7350    2.0001    0.0000 C   0  0  0  0  0  0  0  0  0  0  0  0
    1.7379    3.0001    0.0000 O   0  0  0  0  0  0  0  0  0  0  0  0
    2.5995    1.4976    0.0000 N   0  0  0  0  0  0  0  0  0  0  0  0
    3.4670    1.9950    0.0000 C   0  0  0  0  0  0  0  0  0  0  0  0
    3.4700    2.9950    0.0000 C   0  0  0  0  0  0  0  0  0  0  0  0
    4.3390    3.4900    0.0000 C   0  0  0  0  0  0  0  0  0  0  0  0
    4.3419    4.4952    0.0000 C   0  0  0  0  0  0  0  0  0  0  0  0
    3.4759    5.0054    0.0000 O   0  0  0  0  0  0  0  0  0  0  0  0
    2.6069    4.5003    0.0000 C   0  0  0  0  0  0  0  0  0  0  0  0
    2.6040    3.4951    0.0000 C   0  0  0  0  0  0  0  0  0  0  0  0
  1  2  1  0
  2  3  1  0
  3 25  2  0
  3  4  1  0
  4  5  2  0
  5  6  1  0
  6  7  1  0
  7  8  1  0
  8  9  2  0
  8 10  1  0
 10 23  1  0
 10 11  2  0
 11 12  1  0
 12 13  2  0
 13 14  1  0
 14 15  1  0
 15 16  1  0
 15 17  1  0
 13 18  1  0
 18 23  2  0
 18 19  1  0
 19 20  2  0
 20 21  1  0
 21 22  2  0
 22 23  1  0
  6 24  2  0
 24 25  1  0
 24 26  1  0
 26 27  2  0
 26 28  1  0
 28 29  1  0
 29 30  1  0
 30 35  1  0
 30 31  1  0
 31 32  1  0
 32 33  1  0
 33 34  1  0
 34 35  1  0
M  CHG  2  15   1  17  -1
M  END
>  <SMILES>  (257) 
COc1ccc(NC(=O)c2ccc(C[S+](C)[O-])c3ccccc23)c(C(=O)NCC2CCOCC2)n1

>  <CollectionName>  (257) 
chembl

>  <LOG PLASMA PROTEIN BINDING (RAT) (% unbound)>  (257) 
0.64048143697

>  <Internal ID>  (257) 


>  <Source>  (257) 
AstraZeneca

$$$$
CHEMBL2316385
     RDKit          2D

 31 34  0  0  1  0  0  0  0  0999 V2000
    5.2306    5.9981    0.0000 C   0  0  0  0  0  0  0  0  0  0  0  0
    6.0937    5.4932    0.0000 S   0  0  0  0  0  0  0  0  0  0  0  0
    6.9626    5.9882    0.0000 O   0  0  0  0  0  0  0  0  0  0  0  0
    6.0880    4.4932    0.0000 C   0  0  0  0  0  0  0  0  0  0  0  0
    5.2191    3.9982    0.0000 C   0  0  0  0  0  0  0  0  0  0  0  0
    4.3525    4.5068    0.0000 C   0  0  0  0  0  0  0  0  0  0  0  0
    3.4794    4.0077    0.0000 C   0  0  0  0  0  0  0  0  0  0  0  0
    3.4729    3.0001    0.0000 C   0  0  0  0  0  0  0  0  0  0  0  0
    2.6054    2.5026    0.0000 C   0  0  0  0  0  0  0  0  0  0  0  0
    1.7409    3.0052    0.0000 O   0  0  0  0  0  0  0  0  0  0  0  0
    2.6025    1.5026    0.0000 N   0  0  0  0  0  0  0  0  0  0  0  0
    1.7350    1.0052    0.0000 C   0  0  0  0  0  0  0  0  0  0  0  0
    0.8675    1.5129    0.0000 N   0  0  0  0  0  0  0  0  0  0  0  0
    0.0000    1.0052    0.0000 C   0  0  0  0  0  0  0  0  0  0  0  0
    0.0000    0.0000    0.0000 C   0  0  0  0  0  0  0  0  0  0  0  0
    0.8675   -0.4975    0.0000 N   0  0  0  0  0  0  0  0  0  0  0  0
    1.7350    0.0000    0.0000 C   0  0  0  0  0  0  0  0  0  0  0  0
    2.6003   -0.5013    0.0000 C   0  0  0  0  0  0  0  0  0  0  0  0
    3.4670   -0.0025    0.0000 O   0  0  0  0  0  0  0  0  0  0  0  0
    2.5988   -1.5013    0.0000 N   0  0  0  0  0  0  0  0  0  0  0  0
    3.4641   -2.0025    0.0000 C   0  0  0  0  0  0  0  0  0  0  0  0
    3.4627   -3.0025    0.0000 C   0  0  0  0  0  0  0  0  0  0  0  0
    2.7546   -3.7086    0.0000 C   0  0  0  0  0  0  0  0  0  0  0  0
    3.4606   -4.4167    0.0000 C   0  0  0  0  0  0  0  0  0  0  0  0
    4.1688   -3.7106    0.0000 C   0  0  0  0  0  0  0  0  0  0  0  0
    4.3417    2.4991    0.0000 C   0  0  0  0  0  0  0  0  0  0  0  0
    4.3302    1.4936    0.0000 C   0  0  0  0  0  0  0  0  0  0  0  0
    5.2011    0.9910    0.0000 C   0  0  0  0  0  0  0  0  0  0  0  0
    6.0749    1.4889    0.0000 C   0  0  0  0  0  0  0  0  0  0  0  0
    6.0776    2.4894    0.0000 C   0  0  0  0  0  0  0  0  0  0  0  0
    5.2148    2.9982    0.0000 C   0  0  0  0  0  0  0  0  0  0  0  0
  1  2  1  0
  2  3  1  0
  2  4  1  0
  4  5  1  0
  5 31  2  0
  5  6  1  0
  6  7  2  0
  7  8  1  0
  8  9  1  0
  9 10  2  0
  9 11  1  0
 11 12  1  0
 12 17  1  0
 12 13  2  0
 13 14  1  0
 14 15  2  0
 15 16  1  0
 16 17  2  0
 17 18  1  0
 18 19  2  0
 18 20  1  0
 20 21  1  0
 21 22  1  0
 22 25  1  0
 22 23  1  0
 23 24  1  0
 24 25  1  0
  8 26  2  0
 26 31  1  0
 26 27  1  0
 27 28  2  0
 28 29  1  0
 29 30  2  0
 30 31  1  0
M  CHG  2   2   1   3  -1
M  END
>  <SMILES>  (258) 
C[S+]([O-])Cc1ccc(C(=O)Nc2nccnc2C(=O)NCC2CCC2)c2ccccc12

>  <CollectionName>  (258) 
chembl

>  <LOG PLASMA PROTEIN BINDING (RAT) (% unbound)>  (258) 
0.994756944588

>  <Internal ID>  (258) 


>  <Source>  (258) 
AstraZeneca

$$$$
CHEMBL2325636
     RDKit          2D

 35 38  0  0  0  0  0  0  0  0999 V2000
    1.7350    2.0001    0.0000 N   0  0  0  0  0  0  0  0  0  0  0  0
    0.8675    1.5027    0.0000 C   0  0  0  0  0  0  0  0  0  0  0  0
    0.8675    0.4975    0.0000 C   0  0  0  0  0  0  0  0  0  0  0  0
    0.0000    0.0000    0.0000 C   0  0  0  0  0  0  0  0  0  0  0  0
   -0.8675    0.4975    0.0000 C   0  0  0  0  0  0  0  0  0  0  0  0
   -0.8675    1.5027    0.0000 C   0  0  0  0  0  0  0  0  0  0  0  0
   -0.0000    2.0104    0.0000 N   0  0  0  0  0  0  0  0  0  0  0  0
    0.0000   -1.0000    0.0000 C   0  0  0  0  0  0  0  0  0  0  0  0
    0.8720   -1.5000    0.0000 C   0  0  0  0  0  0  0  0  0  0  0  0
    0.8631   -2.5051    0.0000 C   0  0  0  0  0  0  0  0  0  0  0  0
   -0.0089   -3.0051    0.0000 C   0  0  0  0  0  0  0  0  0  0  0  0
   -0.8721   -2.5001    0.0000 C   0  0  0  0  0  0  0  0  0  0  0  0
   -0.8720   -1.5000    0.0000 C   0  0  0  0  0  0  0  0  0  0  0  0
   -1.7373   -0.9987    0.0000 O   0  0  0  0  0  0  0  0  0  0  0  0
   -2.6041   -1.4974    0.0000 C   0  0  0  0  0  0  0  0  0  0  0  0
   -3.4701   -0.9974    0.0000 C   0  0  0  0  0  0  0  0  0  0  0  0
   -4.3390   -1.4923    0.0000 C   0  0  0  0  0  0  0  0  0  0  0  0
   -5.2029   -0.9885    0.0000 F   0  0  0  0  0  0  0  0  0  0  0  0
   -4.3420   -2.4975    0.0000 C   0  0  0  0  0  0  0  0  0  0  0  0
   -3.4760   -3.0078    0.0000 C   0  0  0  0  0  0  0  0  0  0  0  0
   -2.6070   -2.5026    0.0000 C   0  0  0  0  0  0  0  0  0  0  0  0
   -1.7410   -3.0026    0.0000 Cl  0  0  0  0  0  0  0  0  0  0  0  0
   -5.2110   -2.9924    0.0000 S   0  0  0  0  0  0  0  0  0  0  0  0
   -4.7161   -3.8614    0.0000 O   0  0  0  0  0  0  0  0  0  0  0  0
   -5.7059   -2.1234    0.0000 O   0  0  0  0  0  0  0  0  0  0  0  0
   -6.0799   -3.4873    0.0000 N   0  0  0  0  0  0  0  0  0  0  0  0
   -6.9430   -2.9822    0.0000 C   0  0  0  0  0  0  0  0  0  0  0  0
   -7.0386   -1.9868    0.0000 N   0  0  0  0  0  0  0  0  0  0  0  0
   -8.0169   -1.7724    0.0000 C   0  0  0  0  0  0  0  0  0  0  0  0
   -8.5252   -2.6354    0.0000 N   0  0  0  0  0  0  0  0  0  0  0  0
   -7.8581   -3.3864    0.0000 S   0  0  0  0  0  0  0  0  0  0  0  0
    1.7261   -3.0102    0.0000 C   0  0  0  0  0  0  0  0  0  0  0  0
    1.2210   -3.8733    0.0000 F   0  0  0  0  0  0  0  0  0  0  0  0
    2.2312   -2.1471    0.0000 F   0  0  0  0  0  0  0  0  0  0  0  0
    2.5892   -3.5153    0.0000 F   0  0  0  0  0  0  0  0  0  0  0  0
  1  2  1  0
  2  7  2  0
  2  3  1  0
  3  4  2  0
  4  5  1  0
  5  6  2  0
  6  7  1  0
  4  8  1  0
  8 13  1  0
  8  9  2  0
  9 10  1  0
 10 11  2  0
 11 12  1  0
 12 13  2  0
 13 14  1  0
 14 15  1  0
 15 21  1  0
 15 16  2  0
 16 17  1  0
 17 18  1  0
 17 19  2  0
 19 20  1  0
 20 21  2  0
 21 22  1  0
 19 23  1  0
 23 24  2  0
 23 25  2  0
 23 26  1  0
 26 27  1  0
 27 31  1  0
 27 28  2  0
 28 29  1  0
 29 30  2  0
 30 31  1  0
 10 32  1  0
 32 33  1  0
 32 34  1  0
 32 35  1  0
M  END
>  <SMILES>  (259) 
Nc1cc(-c2cc(C(F)(F)F)ccc2Oc2cc(F)c(S(=O)(=O)Nc3ncns3)cc2Cl)ccn1

>  <CollectionName>  (259) 
chembl

>  <LOG PLASMA PROTEIN BINDING (RAT) (% unbound)>  (259) 
-0.45593195565

>  <Internal ID>  (259) 


>  <Source>  (259) 
AstraZeneca

$$$$
CHEMBL2335896
     RDKit          2D

 29 32  0  0  1  0  0  0  0  0999 V2000
    7.8199   -1.4817    0.0000 C   0  0  0  0  0  0  0  0  0  0  0  0
    7.8152   -0.4817    0.0000 C   0  0  0  0  0  0  0  0  0  0  0  0
    8.6789    0.0223    0.0000 N   0  0  0  0  0  0  0  0  0  0  0  0
    9.5472   -0.4736    0.0000 C   0  0  0  0  0  0  0  0  0  0  0  0
    9.5520   -1.4736    0.0000 O   0  0  0  0  0  0  0  0  0  0  0  0
   10.4109    0.0305    0.0000 C   0  0  0  0  0  0  0  0  0  0  0  0
    6.9468    0.0142    0.0000 C   0  0  0  0  0  0  0  0  0  0  0  0
    6.9407    1.0142    0.0000 C   0  0  0  0  0  0  0  0  0  0  0  0
    6.0744    1.5139    0.0000 C   0  0  0  0  0  0  0  0  0  0  0  0
    5.2056    1.0084    0.0000 C   0  0  0  0  0  0  0  0  0  0  0  0
    4.3394    1.5082    0.0000 N   0  0  0  0  0  0  0  0  0  0  0  0
    3.4735    1.0079    0.0000 C   0  0  0  0  0  0  0  0  0  0  0  0
    3.4748    0.0023    0.0000 N   0  0  0  0  0  0  0  0  0  0  0  0
    2.6038   -0.4989    0.0000 C   0  0  0  0  0  0  0  0  0  0  0  0
    1.7371   -0.0000    0.0000 C   0  0  0  0  0  0  0  0  0  0  0  0
    0.8679   -0.4977    0.0000 C   0  0  0  0  0  0  0  0  0  0  0  0
    0.0000    0.0000    0.0000 C   0  0  0  0  0  0  0  0  0  0  0  0
    0.0000    1.0056    0.0000 C   0  0  0  0  0  0  0  0  0  0  0  0
    0.8679    1.5135    0.0000 C   0  0  0  0  0  0  0  0  0  0  0  0
    1.7358    1.0056    0.0000 C   0  0  0  0  0  0  0  0  0  0  0  0
    2.6012    1.5123    0.0000 N   0  0  0  0  0  0  0  0  0  0  0  0
   -0.8653   -0.5013    0.0000 C   0  0  0  0  0  0  0  0  0  0  0  0
   -0.8609   -1.5013    0.0000 C   0  0  0  0  0  0  0  0  0  0  0  0
   -1.7307   -2.0052    0.0000 C   0  0  0  0  0  0  0  0  0  0  0  0
   -2.6049   -1.5090    0.0000 N   0  0  0  0  0  0  0  0  0  0  0  0
   -2.6004   -0.5039    0.0000 C   0  0  0  0  0  0  0  0  0  0  0  0
   -1.7306   -0.0000    0.0000 C   0  0  0  0  0  0  0  0  0  0  0  0
    5.2029    0.0033    0.0000 C   0  0  0  0  0  0  0  0  0  0  0  0
    6.0779   -0.4913    0.0000 C   0  0  0  0  0  0  0  0  0  0  0  0
  2  1  1  6
  2  3  1  0
  3  4  1  0
  4  5  2  0
  4  6  1  0
  2  7  1  0
  7 29  2  0
  7  8  1  0
  8  9  2  0
  9 10  1  0
 10 11  1  0
 11 12  1  0
 12 21  1  0
 12 13  2  0
 13 14  1  0
 14 15  2  0
 15 20  1  0
 15 16  1  0
 16 17  2  0
 17 18  1  0
 18 19  2  0
 19 20  1  0
 20 21  2  0
 17 22  1  0
 22 27  1  0
 22 23  2  0
 23 24  1  0
 24 25  2  0
 25 26  1  0
 26 27  2  0
 10 28  2  0
 28 29  1  0
M  END
>  <SMILES>  (260) 
CC(=O)N[C@H](C)c1ccc(Nc2ncc3cc(-c4ccncc4)ccc3n2)cc1

>  <CollectionName>  (260) 
chembl

>  <LOG PLASMA PROTEIN BINDING (RAT) (% unbound)>  (260) 
0.725911632295

>  <Internal ID>  (260) 


>  <Source>  (260) 
AstraZeneca

$$$$
CHEMBL114
     RDKit          2D

 49 53  0  0  1  0  0  0  0  0999 V2000
   11.2806   -0.2946    0.0000 C   0  0  0  0  0  0  0  0  0  0  0  0
   10.4118   -0.7897    0.0000 C   0  0  0  0  0  0  0  0  0  0  0  0
    9.9166    0.0791    0.0000 C   0  0  0  0  0  0  0  0  0  0  0  0
   10.9069   -1.6585    0.0000 C   0  0  0  0  0  0  0  0  0  0  0  0
    9.5430   -1.2848    0.0000 N   0  0  0  0  0  0  0  0  0  0  0  0
    8.6797   -0.7800    0.0000 C   0  0  0  0  0  0  0  0  0  0  0  0
    8.6854    0.2200    0.0000 O   0  0  0  0  0  0  0  0  0  0  0  0
    7.8109   -1.2751    0.0000 C   0  0  0  0  0  0  0  0  0  0  0  0
    7.8039   -2.2833    0.0000 C   0  0  0  0  0  0  0  0  0  0  0  0
    6.9329   -2.7813    0.0000 C   0  0  0  0  0  0  0  0  0  0  0  0
    6.9321   -3.7813    0.0000 C   0  0  0  0  0  0  0  0  0  0  0  0
    6.0644   -4.2857    0.0000 C   0  0  0  0  0  0  0  0  0  0  0  0
    5.1906   -3.7812    0.0000 C   0  0  0  0  0  0  0  0  0  0  0  0
    5.1846   -2.7724    0.0000 C   0  0  0  0  0  0  0  0  0  0  0  0
    6.0613   -2.2731    0.0000 C   0  0  0  0  0  0  0  0  0  0  0  0
    6.0607   -1.2669    0.0000 C   0  0  0  0  0  0  0  0  0  0  0  0
    6.9395   -0.7671    0.0000 N   0  0  0  0  0  0  0  0  0  0  0  0
    6.9489    0.9829    0.0000 C   0  0  0  0  0  0  0  0  0  0  0  0
    7.8175    1.4783    0.0000 C   0  0  0  0  0  0  0  0  0  0  0  0
    8.6809    0.9737    0.0000 O   0  0  0  0  0  0  0  0  0  0  0  0
    7.8229    2.4783    0.0000 C   0  0  0  0  0  0  0  0  0  0  0  0
    8.6915    2.9737    0.0000 C   0  0  0  0  0  0  0  0  0  0  0  0
    8.6969    3.9736    0.0000 C   0  0  0  0  0  0  0  0  0  0  0  0
    9.5715    4.4690    0.0000 C   0  0  0  0  0  0  0  0  0  0  0  0
    9.5769    5.4690    0.0000 C   0  0  0  0  0  0  0  0  0  0  0  0
    8.7165    5.9787    0.0000 C   0  0  0  0  0  0  0  0  0  0  0  0
    7.8419    5.4833    0.0000 C   0  0  0  0  0  0  0  0  0  0  0  0
    7.8276    4.4783    0.0000 C   0  0  0  0  0  0  0  0  0  0  0  0
    6.9595    2.9829    0.0000 N   0  0  0  0  0  0  0  0  0  0  0  0
    6.0908    2.4875    0.0000 C   0  0  0  0  0  0  0  0  0  0  0  0
    6.0855    1.4875    0.0000 O   0  0  0  0  0  0  0  0  0  0  0  0
    5.2275    2.9921    0.0000 C   0  0  0  0  0  0  0  0  0  0  0  0
    5.2328    3.9921    0.0000 C   0  0  0  0  0  0  0  0  0  0  0  0
    4.3695    4.4967    0.0000 C   0  0  0  0  0  0  0  0  0  0  0  0
    3.5008    4.0014    0.0000 O   0  0  0  0  0  0  0  0  0  0  0  0
    4.3748    5.4967    0.0000 N   0  0  0  0  0  0  0  0  0  0  0  0
    4.3588    2.4968    0.0000 N   0  0  0  0  0  0  0  0  0  0  0  0
    4.3535    1.4968    0.0000 C   0  0  0  0  0  0  0  0  0  0  0  0
    5.2168    0.9922    0.0000 O   0  0  0  0  0  0  0  0  0  0  0  0
    3.4848    1.0014    0.0000 C   0  0  0  0  0  0  0  0  0  0  0  0
    3.4805   -0.0073    0.0000 C   0  0  0  0  0  0  0  0  0  0  0  0
    2.6039   -0.5053    0.0000 C   0  0  0  0  0  0  0  0  0  0  0  0
    1.7371    0.0000    0.0000 C   0  0  0  0  0  0  0  0  0  0  0  0
    0.8707   -0.4993    0.0000 C   0  0  0  0  0  0  0  0  0  0  0  0
    0.0000    0.0000    0.0000 C   0  0  0  0  0  0  0  0  0  0  0  0
    0.0000    1.0089    0.0000 C   0  0  0  0  0  0  0  0  0  0  0  0
    0.8707    1.5185    0.0000 C   0  0  0  0  0  0  0  0  0  0  0  0
    1.7414    1.0089    0.0000 C   0  0  0  0  0  0  0  0  0  0  0  0
    2.6125    1.5125    0.0000 N   0  0  0  0  0  0  0  0  0  0  0  0
  1  2  1  0
  2  3  1  0
  2  4  1  0
  2  5  1  0
  5  6  1  0
  6  7  2  0
  8  6  1  6
  8 17  1  0
  8  9  1  0
 10  9  1  6
 10 15  1  0
 10 11  1  0
 11 12  1  0
 12 13  1  0
 13 14  1  0
 15 14  1  6
 15 16  1  0
 16 17  1  0
 17 18  1  0
 18 19  1  0
 19 20  1  6
 19 21  1  0
 21 22  1  1
 22 23  1  0
 23 28  1  0
 23 24  2  0
 24 25  1  0
 25 26  2  0
 26 27  1  0
 27 28  2  0
 21 29  1  0
 29 30  1  0
 30 31  2  0
 32 30  1  0
 32 33  1  1
 33 34  1  0
 34 35  2  0
 34 36  1  0
 32 37  1  0
 37 38  1  0
 38 39  2  0
 38 40  1  0
 40 49  1  0
 40 41  2  0
 41 42  1  0
 42 43  2  0
 43 48  1  0
 43 44  1  0
 44 45  2  0
 45 46  1  0
 46 47  2  0
 47 48  1  0
 48 49  2  0
M  END
>  <SMILES>  (261) 
CC(C)(C)NC(=O)[C@@H]1C[C@@H]2CCCC[C@@H]2CN1C[C@@H](O)[C@H](Cc1ccccc1)NC(=O)[C@H](CC(N)=O)NC(=O)c1ccc2ccccc2n1

>  <CollectionName>  (261) 
chembl

>  <LOG PLASMA PROTEIN BINDING (RAT) (% unbound)>  (261) 
-0.318758762624

>  <Internal ID>  (261) 


>  <Source>  (261) 
AstraZeneca

$$$$
CHEMBL456145
     RDKit          2D

 13 15  0  0  0  0  0  0  0  0999 V2000
    0.0000    0.0000    0.0000 C   0  0  0  0  0  0  0  0  0  0  0  0
    0.5917    0.8064    0.0000 C   0  0  0  0  0  0  0  0  0  0  0  0
    1.5414    0.4930    0.0000 C   0  0  0  0  0  0  0  0  0  0  0  0
    2.4946    0.7971    0.0000 N   0  0  0  0  0  0  0  0  0  0  0  0
    3.0784   -0.0148    0.0000 N   0  0  0  0  0  0  0  0  0  0  0  0
    2.4863   -0.8210    0.0000 C   0  0  0  0  0  0  0  0  0  0  0  0
    1.5368   -0.5071    0.0000 C   0  0  0  0  0  0  0  0  0  0  0  0
    0.5843   -0.8117    0.0000 C   0  0  0  0  0  0  0  0  0  0  0  0
    2.7904   -1.7736    0.0000 C   0  0  0  0  0  0  0  0  0  0  0  0
    3.7412   -2.0848    0.0000 N   0  0  0  0  0  0  0  0  0  0  0  0
    3.7352   -3.0893    0.0000 N   0  0  0  0  0  0  0  0  0  0  0  0
    2.7803   -3.3912    0.0000 N   0  0  0  0  0  0  0  0  0  0  0  0
    2.1961   -2.5778    0.0000 N   0  0  0  0  0  0  0  0  0  0  0  0
  1  8  1  0
  1  2  1  0
  2  3  1  0
  3  7  2  0
  3  4  1  0
  4  5  1  0
  5  6  2  0
  6  7  1  0
  7  8  1  0
  6  9  1  0
  9 13  2  0
  9 10  1  0
 10 11  2  0
 11 12  1  0
 12 13  1  0
M  END
>  <SMILES>  (262) 
C1Cc2[nH]nc(-c3nn[nH]n3)c2C1

>  <CollectionName>  (262) 
chembl

>  <LOG PLASMA PROTEIN BINDING (RAT) (% unbound)>  (262) 
0.857332496431

>  <Internal ID>  (262) 


>  <Source>  (262) 
AstraZeneca

$$$$
CHEMBL456324
     RDKit          2D

 33 35  0  0  1  0  0  0  0  0999 V2000
   -1.1891    5.8680    0.0000 C   0  0  0  0  0  0  0  0  0  0  0  0
   -0.1944    5.7648    0.0000 C   0  0  0  0  0  0  0  0  0  0  0  0
    0.3923    6.5746    0.0000 C   0  0  0  0  0  0  0  0  0  0  0  0
    0.2135    4.8518    0.0000 O   0  0  0  0  0  0  0  0  0  0  0  0
   -0.3732    4.0420    0.0000 C   0  0  0  0  0  0  0  0  0  0  0  0
   -0.0613    3.0903    0.0000 C   0  0  0  0  0  0  0  0  0  0  0  0
   -0.8704    2.5026    0.0000 C   0  0  0  0  0  0  0  0  0  0  0  0
   -0.8675    1.5026    0.0000 N   0  0  0  0  0  0  0  0  0  0  0  0
    0.0000    1.0052    0.0000 C   0  0  0  0  0  0  0  0  0  0  0  0
    0.8675    1.5129    0.0000 N   0  0  0  0  0  0  0  0  0  0  0  0
    1.7350    1.0052    0.0000 C   0  0  0  0  0  0  0  0  0  0  0  0
    2.6025    1.5026    0.0000 N   0  0  0  0  0  0  0  0  0  0  0  0
    2.6054    2.5026    0.0000 C   0  0  0  0  0  0  0  0  0  0  0  0
    1.7409    3.0052    0.0000 C   0  0  0  0  0  0  0  0  0  0  0  0
    3.4729    3.0001    0.0000 C   0  0  0  0  0  0  0  0  0  0  0  0
    4.3382    2.4988    0.0000 C   0  0  0  0  0  0  0  0  0  0  0  0
    5.2079    2.9924    0.0000 C   0  0  0  0  0  0  0  0  0  0  0  0
    5.2124    3.9976    0.0000 C   0  0  0  0  0  0  0  0  0  0  0  0
    6.0820    4.4913    0.0000 F   0  0  0  0  0  0  0  0  0  0  0  0
    4.3471    4.5091    0.0000 C   0  0  0  0  0  0  0  0  0  0  0  0
    3.4774    4.0053    0.0000 C   0  0  0  0  0  0  0  0  0  0  0  0
    1.7350    0.0000    0.0000 N   0  0  0  0  0  0  0  0  0  0  0  0
    0.8675   -0.4975    0.0000 C   0  0  0  0  0  0  0  0  0  0  0  0
    0.8675   -1.4975    0.0000 N   0  0  0  0  0  0  0  0  0  0  0  0
    1.7335   -1.9975    0.0000 C   0  0  0  0  0  0  0  0  0  0  0  0
    2.5996   -1.4975    0.0000 C   0  0  0  0  0  0  0  0  0  0  0  0
    2.5996   -0.4975    0.0000 O   0  0  0  0  0  0  0  0  0  0  0  0
    1.7335   -2.9975    0.0000 C   0  0  0  0  0  0  0  0  0  0  0  0
    2.5996   -3.4975    0.0000 O   0  0  0  0  0  0  0  0  0  0  0  0
    0.0000    0.0000    0.0000 C   0  0  0  0  0  0  0  0  0  0  0  0
   -0.8653   -0.5013    0.0000 Cl  0  0  0  0  0  0  0  0  0  0  0  0
   -1.6834    3.0858    0.0000 N   0  0  0  0  0  0  0  0  0  0  0  0
   -1.3749    4.0419    0.0000 N   0  0  0  0  0  0  0  0  0  0  0  0
  1  2  1  0
  2  3  1  0
  2  4  1  0
  4  5  1  0
  5 33  1  0
  5  6  2  0
  6  7  1  0
  7  8  1  0
  8  9  1  0
  9 30  1  0
  9 10  2  0
 10 11  1  0
 11 12  1  0
 12 13  1  0
 13 14  1  1
 13 15  1  0
 15 21  1  0
 15 16  2  0
 16 17  1  0
 17 18  2  0
 18 19  1  0
 18 20  1  0
 20 21  2  0
 11 22  2  0
 22 23  1  0
 23 24  1  0
 24 25  1  0
 25 26  1  0
 26 27  1  0
 25 28  1  0
 28 29  1  0
 23 30  2  0
 30 31  1  0
  7 32  2  0
 32 33  1  0
M  END
>  <SMILES>  (263) 
CC(C)Oc1cc(Nc2nc(N[C@@H](C)c3ccc(F)cc3)nc(NC(CO)CO)c2Cl)n[nH]1

>  <CollectionName>  (263) 
chembl

>  <LOG PLASMA PROTEIN BINDING (RAT) (% unbound)>  (263) 
0.631443769013

>  <Internal ID>  (263) 


>  <Source>  (263) 
AstraZeneca

$$$$
CHEMBL1172
     RDKit          2D

 22 25  0  0  0  0  0  0  0  0999 V2000
    6.6129    0.3497    0.0000 Cl  0  0  0  0  0  0  0  0  0  0  0  0
    5.6612    0.0428    0.0000 C   0  0  0  0  0  0  0  0  0  0  0  0
    5.4510   -0.9405    0.0000 C   0  0  0  0  0  0  0  0  0  0  0  0
    4.4941   -1.2472    0.0000 C   0  0  0  0  0  0  0  0  0  0  0  0
    3.7517   -0.5772    0.0000 C   0  0  0  0  0  0  0  0  0  0  0  0
    2.8446   -1.0154    0.0000 C   0  0  0  0  0  0  0  0  0  0  0  0
    2.8490   -2.0154    0.0000 C   0  0  0  0  0  0  0  0  0  0  0  0
    3.7187   -2.5091    0.0000 C   0  0  0  0  0  0  0  0  0  0  0  0
    3.7231   -3.5143    0.0000 C   0  0  0  0  0  0  0  0  0  0  0  0
    2.8578   -4.0258    0.0000 N   0  0  0  0  0  0  0  0  0  0  0  0
    1.9881   -3.5219    0.0000 C   0  0  0  0  0  0  0  0  0  0  0  0
    1.9837   -2.5167    0.0000 C   0  0  0  0  0  0  0  0  0  0  0  0
    1.9312   -0.5840    0.0000 C   0  0  0  0  0  0  0  0  0  0  0  0
    1.2003   -1.2778    0.0000 N   0  0  0  0  0  0  0  0  0  0  0  0
    0.2313   -0.9837    0.0000 C   0  0  0  0  0  0  0  0  0  0  0  0
    0.0000    0.0000    0.0000 C   0  0  0  0  0  0  0  0  0  0  0  0
    0.7377    0.6898    0.0000 C   0  0  0  0  0  0  0  0  0  0  0  0
    1.6999    0.3997    0.0000 C   0  0  0  0  0  0  0  0  0  0  0  0
    2.3292    1.1930    0.0000 C   0  0  0  0  0  0  0  0  0  0  0  0
    3.3333    1.1944    0.0000 C   0  0  0  0  0  0  0  0  0  0  0  0
    3.9620    0.4062    0.0000 C   0  0  0  0  0  0  0  0  0  0  0  0
    4.9146    0.7195    0.0000 C   0  0  0  0  0  0  0  0  0  0  0  0
  1  2  1  0
  2 22  2  0
  2  3  1  0
  3  4  2  0
  4  5  1  0
  5 21  2  0
  5  6  1  0
  6  7  2  0
  7 12  1  0
  7  8  1  0
  8  9  1  0
  9 10  1  0
 10 11  1  0
 11 12  1  0
  6 13  1  0
 13 18  2  0
 13 14  1  0
 14 15  2  0
 15 16  1  0
 16 17  2  0
 17 18  1  0
 18 19  1  0
 19 20  1  0
 20 21  1  0
 21 22  1  0
M  END
>  <SMILES>  (264) 
Clc1ccc2c(c1)CCc1cccnc1C2=C1CCNCC1

>  <CollectionName>  (264) 
chembl

>  <LOG PLASMA PROTEIN BINDING (RAT) (% unbound)>  (264) 
1.16196661636

>  <Internal ID>  (264) 


>  <Source>  (264) 
AstraZeneca

$$$$
CHEMBL1683036
     RDKit          2D

 31 34  0  0  0  0  0  0  0  0999 V2000
   -0.8704    2.5031    0.0000 C   0  0  0  0  0  0  0  0  0  0  0  0
   -0.8675    1.5031    0.0000 O   0  0  0  0  0  0  0  0  0  0  0  0
   -0.0000    1.0056    0.0000 C   0  0  0  0  0  0  0  0  0  0  0  0
    0.8679    1.5135    0.0000 C   0  0  0  0  0  0  0  0  0  0  0  0
    1.7358    1.0056    0.0000 C   0  0  0  0  0  0  0  0  0  0  0  0
    2.6012    1.5123    0.0000 N   0  0  0  0  0  0  0  0  0  0  0  0
    3.4735    1.0079    0.0000 N   0  0  0  0  0  0  0  0  0  0  0  0
    3.4748    0.0023    0.0000 C   0  0  0  0  0  0  0  0  0  0  0  0
    4.3408   -0.4978    0.0000 C   0  0  0  0  0  0  0  0  0  0  0  0
    4.3407   -1.4978    0.0000 O   0  0  0  0  0  0  0  0  0  0  0  0
    5.2069    0.0022    0.0000 N   0  0  0  0  0  0  0  0  0  0  0  0
    2.6038   -0.4989    0.0000 C   0  0  0  0  0  0  0  0  0  0  0  0
    2.6037   -1.4989    0.0000 N   0  0  0  0  0  0  0  0  0  0  0  0
    1.7377   -1.9988    0.0000 C   0  0  0  0  0  0  0  0  0  0  0  0
    0.8709   -1.5000    0.0000 C   0  0  0  0  0  0  0  0  0  0  0  0
    0.0027   -1.9962    0.0000 C   0  0  0  0  0  0  0  0  0  0  0  0
    0.0011   -3.0014    0.0000 C   0  0  0  0  0  0  0  0  0  0  0  0
   -0.8671   -3.4975    0.0000 C   0  0  0  0  0  0  0  0  0  0  0  0
    0.8679   -3.5104    0.0000 C   0  0  0  0  0  0  0  0  0  0  0  0
    1.7361   -3.0040    0.0000 C   0  0  0  0  0  0  0  0  0  0  0  0
    2.6029   -3.5028    0.0000 F   0  0  0  0  0  0  0  0  0  0  0  0
    1.7371    0.0000    0.0000 C   0  0  0  0  0  0  0  0  0  0  0  0
    0.8679   -0.4977    0.0000 C   0  0  0  0  0  0  0  0  0  0  0  0
    0.0000    0.0000    0.0000 C   0  0  0  0  0  0  0  0  0  0  0  0
   -0.8653   -0.5013    0.0000 N   0  0  0  0  0  0  0  0  0  0  0  0
   -1.7395   -0.0051    0.0000 C   0  0  0  0  0  0  0  0  0  0  0  0
   -2.6092   -0.5090    0.0000 C   0  0  0  0  0  0  0  0  0  0  0  0
   -2.6049   -1.5090    0.0000 N   0  0  0  0  0  0  0  0  0  0  0  0
   -3.4702   -2.0103    0.0000 C   0  0  0  0  0  0  0  0  0  0  0  0
   -1.7395   -2.0103    0.0000 C   0  0  0  0  0  0  0  0  0  0  0  0
   -0.8698   -1.5064    0.0000 C   0  0  0  0  0  0  0  0  0  0  0  0
  1  2  1  0
  2  3  1  0
  3 24  2  0
  3  4  1  0
  4  5  2  0
  5 22  1  0
  5  6  1  0
  6  7  2  0
  7  8  1  0
  8  9  1  0
  9 10  2  0
  9 11  1  0
  8 12  2  0
 12 13  1  0
 13 14  1  0
 14 20  1  0
 14 15  2  0
 15 16  1  0
 16 17  2  0
 17 18  1  0
 17 19  1  0
 19 20  2  0
 20 21  1  0
 12 22  1  0
 22 23  2  0
 23 24  1  0
 24 25  1  0
 25 31  1  0
 25 26  1  0
 26 27  1  0
 27 28  1  0
 28 29  1  0
 28 30  1  0
 30 31  1  0
M  END
>  <SMILES>  (265) 
COc1cc2nnc(C(N)=O)c(Nc3ccc(C)cc3F)c2cc1N1CCN(C)CC1

>  <CollectionName>  (265) 
chembl

>  <LOG PLASMA PROTEIN BINDING (RAT) (% unbound)>  (265) 
0.838849090737

>  <Internal ID>  (265) 


>  <Source>  (265) 
AstraZeneca

$$$$
CHEMBL1689126
     RDKit          2D

 29 31  0  0  1  0  0  0  0  0999 V2000
    2.6025    1.5026    0.0000 C   0  0  0  0  0  0  0  0  0  0  0  0
    1.7350    1.0052    0.0000 C   0  0  0  0  0  0  0  0  0  0  0  0
    1.7350    0.0000    0.0000 C   0  0  0  0  0  0  0  0  0  0  0  0
    0.8675   -0.4975    0.0000 N   0  0  0  0  0  0  0  0  0  0  0  0
    0.8675   -1.4975    0.0000 C   0  0  0  0  0  0  0  0  0  0  0  0
    0.0015   -1.9975    0.0000 C   0  0  0  0  0  0  0  0  0  0  0  0
   -0.8675   -1.4924    0.0000 C   0  0  0  0  0  0  0  0  0  0  0  0
   -1.7335   -2.0026    0.0000 C   0  0  0  0  0  0  0  0  0  0  0  0
   -2.6025   -1.5077    0.0000 Cl  0  0  0  0  0  0  0  0  0  0  0  0
   -1.7306   -3.0078    0.0000 C   0  0  0  0  0  0  0  0  0  0  0  0
   -0.8616   -3.5028    0.0000 C   0  0  0  0  0  0  0  0  0  0  0  0
    0.0044   -3.0027    0.0000 C   0  0  0  0  0  0  0  0  0  0  0  0
    0.8712   -3.5014    0.0000 O   0  0  0  0  0  0  0  0  0  0  0  0
    1.7365   -3.0001    0.0000 C   0  0  0  0  0  0  0  0  0  0  0  0
    2.6033   -3.4988    0.0000 C   0  0  0  0  0  0  0  0  0  0  0  0
    2.6048   -4.4988    0.0000 O   0  0  0  0  0  0  0  0  0  0  0  0
    3.4685   -2.9975    0.0000 O   0  0  0  0  0  0  0  0  0  0  0  0
    0.0000    0.0000    0.0000 C   0  0  0  0  0  0  0  0  0  0  0  0
    0.0000    1.0052    0.0000 C   0  0  0  0  0  0  0  0  0  0  0  0
    0.8675    1.5129    0.0000 N   0  0  0  0  0  0  0  0  0  0  0  0
    0.8675    2.5129    0.0000 C   0  0  0  0  0  0  0  0  0  0  0  0
    1.7335    3.0129    0.0000 O   0  0  0  0  0  0  0  0  0  0  0  0
    0.0015    3.0129    0.0000 C   0  0  0  0  0  0  0  0  0  0  0  0
    0.0015    4.0129    0.0000 C   0  0  0  0  0  0  0  0  0  0  0  0
   -0.8705    4.5129    0.0000 C   0  0  0  0  0  0  0  0  0  0  0  0
   -0.8706    5.5130    0.0000 C   0  0  0  0  0  0  0  0  0  0  0  0
   -0.0075    6.0180    0.0000 C   0  0  0  0  0  0  0  0  0  0  0  0
    0.8645    5.5180    0.0000 C   0  0  0  0  0  0  0  0  0  0  0  0
    0.8734    4.5129    0.0000 C   0  0  0  0  0  0  0  0  0  0  0  0
  2  1  1  1
  2 20  1  0
  2  3  1  0
  3  4  1  0
  4  5  1  0
  5  6  1  0
  6 12  1  0
  6  7  2  0
  7  8  1  0
  8  9  1  0
  8 10  2  0
 10 11  1  0
 11 12  2  0
 12 13  1  0
 13 14  1  0
 14 15  1  0
 15 16  2  0
 15 17  1  0
  4 18  1  0
 18 19  1  0
 19 20  1  0
 20 21  1  0
 21 22  2  0
 21 23  1  0
 23 24  1  0
 24 29  1  0
 24 25  2  0
 25 26  1  0
 26 27  2  0
 27 28  1  0
 28 29  2  0
M  END
>  <SMILES>  (266) 
C[C@H]1CN(Cc2cc(Cl)ccc2OCC(=O)O)CCN1C(=O)Cc1ccccc1

>  <CollectionName>  (266) 
chembl

>  <LOG PLASMA PROTEIN BINDING (RAT) (% unbound)>  (266) 
1.03941411918

>  <Internal ID>  (266) 


>  <Source>  (266) 
AstraZeneca

$$$$
CHEMBL1689127
     RDKit          2D

 30 32  0  0  1  0  0  0  0  0999 V2000
    2.6025    1.5026    0.0000 C   0  0  0  0  0  0  0  0  0  0  0  0
    1.7350    1.0052    0.0000 C   0  0  0  0  0  0  0  0  0  0  0  0
    1.7350    0.0000    0.0000 C   0  0  0  0  0  0  0  0  0  0  0  0
    0.8675   -0.4975    0.0000 N   0  0  0  0  0  0  0  0  0  0  0  0
    0.8675   -1.4975    0.0000 C   0  0  0  0  0  0  0  0  0  0  0  0
    0.0015   -1.9975    0.0000 C   0  0  0  0  0  0  0  0  0  0  0  0
   -0.8675   -1.4924    0.0000 C   0  0  0  0  0  0  0  0  0  0  0  0
   -1.7335   -2.0026    0.0000 C   0  0  0  0  0  0  0  0  0  0  0  0
   -2.6025   -1.5077    0.0000 Cl  0  0  0  0  0  0  0  0  0  0  0  0
   -1.7306   -3.0078    0.0000 C   0  0  0  0  0  0  0  0  0  0  0  0
   -0.8616   -3.5028    0.0000 C   0  0  0  0  0  0  0  0  0  0  0  0
    0.0044   -3.0027    0.0000 C   0  0  0  0  0  0  0  0  0  0  0  0
    0.8712   -3.5014    0.0000 O   0  0  0  0  0  0  0  0  0  0  0  0
    1.7365   -3.0001    0.0000 C   0  0  0  0  0  0  0  0  0  0  0  0
    2.6033   -3.4988    0.0000 C   0  0  0  0  0  0  0  0  0  0  0  0
    2.6048   -4.4988    0.0000 O   0  0  0  0  0  0  0  0  0  0  0  0
    3.4685   -2.9975    0.0000 O   0  0  0  0  0  0  0  0  0  0  0  0
    0.0000    0.0000    0.0000 C   0  0  0  0  0  0  0  0  0  0  0  0
    0.0000    1.0052    0.0000 C   0  0  0  0  0  0  0  0  0  0  0  0
    0.8675    1.5129    0.0000 N   0  0  0  0  0  0  0  0  0  0  0  0
    0.8675    2.5129    0.0000 C   0  0  0  0  0  0  0  0  0  0  0  0
    1.7335    3.0129    0.0000 O   0  0  0  0  0  0  0  0  0  0  0  0
    0.0015    3.0129    0.0000 C   0  0  0  0  0  0  0  0  0  0  0  0
    0.0015    4.0129    0.0000 C   0  0  0  0  0  0  0  0  0  0  0  0
    0.8668    4.5142    0.0000 C   0  0  0  0  0  0  0  0  0  0  0  0
    0.8712    5.5142    0.0000 C   0  0  0  0  0  0  0  0  0  0  0  0
    0.0014    6.0181    0.0000 C   0  0  0  0  0  0  0  0  0  0  0  0
    0.0058    7.0180    0.0000 F   0  0  0  0  0  0  0  0  0  0  0  0
   -0.8728    5.5219    0.0000 C   0  0  0  0  0  0  0  0  0  0  0  0
   -0.8683    4.5168    0.0000 C   0  0  0  0  0  0  0  0  0  0  0  0
  2  1  1  1
  2 20  1  0
  2  3  1  0
  3  4  1  0
  4  5  1  0
  5  6  1  0
  6 12  1  0
  6  7  2  0
  7  8  1  0
  8  9  1  0
  8 10  2  0
 10 11  1  0
 11 12  2  0
 12 13  1  0
 13 14  1  0
 14 15  1  0
 15 16  2  0
 15 17  1  0
  4 18  1  0
 18 19  1  0
 19 20  1  0
 20 21  1  0
 21 22  2  0
 21 23  1  0
 23 24  1  0
 24 30  1  0
 24 25  2  0
 25 26  1  0
 26 27  2  0
 27 28  1  0
 27 29  1  0
 29 30  2  0
M  END
>  <SMILES>  (267) 
C[C@H]1CN(Cc2cc(Cl)ccc2OCC(=O)O)CCN1C(=O)Cc1ccc(F)cc1

>  <CollectionName>  (267) 
chembl

>  <LOG PLASMA PROTEIN BINDING (RAT) (% unbound)>  (267) 
0.967547976219

>  <Internal ID>  (267) 


>  <Source>  (267) 
AstraZeneca

$$$$
CHEMBL549
     RDKit          2D

 24 26  0  0  1  0  0  0  0  0999 V2000
   -0.8202    3.9462    0.0000 C   0  0  0  0  0  0  0  0  0  0  0  0
   -0.4135    3.0326    0.0000 N   0  0  0  0  0  0  0  0  0  0  0  0
   -1.0014    2.2236    0.0000 C   0  0  0  0  0  0  0  0  0  0  0  0
    0.5810    2.9280    0.0000 C   0  0  0  0  0  0  0  0  0  0  0  0
    0.9876    2.0144    0.0000 C   0  0  0  0  0  0  0  0  0  0  0  0
    1.9822    1.9098    0.0000 C   0  0  0  0  0  0  0  0  0  0  0  0
    2.6938    0.3110    0.0000 C   0  0  0  0  0  0  0  0  0  0  0  0
    3.2858   -0.5036    0.0000 O   0  0  0  0  0  0  0  0  0  0  0  0
    2.6938   -1.3184    0.0000 C   0  0  0  0  0  0  0  0  0  0  0  0
    1.7360   -1.0071    0.0000 C   0  0  0  0  0  0  0  0  0  0  0  0
    0.8680   -1.5037    0.0000 C   0  0  0  0  0  0  0  0  0  0  0  0
   -0.0000   -1.0058    0.0000 C   0  0  0  0  0  0  0  0  0  0  0  0
    0.0000    0.0000    0.0000 C   0  0  0  0  0  0  0  0  0  0  0  0
    0.8680    0.5079    0.0000 C   0  0  0  0  0  0  0  0  0  0  0  0
    1.7360    0.0000    0.0000 C   0  0  0  0  0  0  0  0  0  0  0  0
   -0.8653   -1.5070    0.0000 C   0  0  0  0  0  0  0  0  0  0  0  0
   -1.7306   -2.0082    0.0000 N   0  0  0  0  0  0  0  0  0  0  0  0
    3.5598    0.8110    0.0000 C   0  0  0  0  0  0  0  0  0  0  0  0
    4.4266    0.3123    0.0000 C   0  0  0  0  0  0  0  0  0  0  0  0
    5.2948    0.8085    0.0000 C   0  0  0  0  0  0  0  0  0  0  0  0
    5.2963    1.8137    0.0000 C   0  0  0  0  0  0  0  0  0  0  0  0
    6.1645    2.3099    0.0000 F   0  0  0  0  0  0  0  0  0  0  0  0
    4.4295    2.3227    0.0000 C   0  0  0  0  0  0  0  0  0  0  0  0
    3.5613    1.8162    0.0000 C   0  0  0  0  0  0  0  0  0  0  0  0
  1  2  1  0
  2  3  1  0
  2  4  1  0
  4  5  1  0
  5  6  1  0
  6  7  1  0
  7 15  1  0
  7  8  1  0
  8  9  1  0
  9 10  1  0
 10 15  2  0
 10 11  1  0
 11 12  2  0
 12 13  1  0
 13 14  2  0
 14 15  1  0
 12 16  1  0
 16 17  3  0
  7 18  1  0
 18 24  1  0
 18 19  2  0
 19 20  1  0
 20 21  2  0
 21 22  1  0
 21 23  1  0
 23 24  2  0
M  END
>  <SMILES>  (268) 
CN(C)CCCC1(c2ccc(F)cc2)OCc2cc(C#N)ccc21

>  <CollectionName>  (268) 
chembl

>  <LOG PLASMA PROTEIN BINDING (RAT) (% unbound)>  (268) 
1.64048143697

>  <Internal ID>  (268) 


>  <Source>  (268) 
AstraZeneca

$$$$
CHEMBL95804
     RDKit          2D

 21 21  0  0  0  0  0  0  0  0999 V2000
   -5.1932   -2.0075    0.0000 C   0  0  0  0  0  0  0  0  0  0  0  0
   -4.3279   -1.5063    0.0000 C   0  0  0  0  0  0  0  0  0  0  0  0
   -4.3294   -0.5063    0.0000 N   0  0  0  0  0  0  0  0  0  0  0  0
   -5.1961   -0.0075    0.0000 C   0  0  0  0  0  0  0  0  0  0  0  0
   -5.1976    0.9925    0.0000 C   0  0  0  0  0  0  0  0  0  0  0  0
   -3.4641   -0.0050    0.0000 C   0  0  0  0  0  0  0  0  0  0  0  0
   -2.5973   -0.5038    0.0000 C   0  0  0  0  0  0  0  0  0  0  0  0
   -1.7320   -0.0025    0.0000 N   0  0  0  0  0  0  0  0  0  0  0  0
   -0.8653   -0.5013    0.0000 C   0  0  0  0  0  0  0  0  0  0  0  0
   -0.8638   -1.5013    0.0000 O   0  0  0  0  0  0  0  0  0  0  0  0
    0.0000    0.0000    0.0000 C   0  0  0  0  0  0  0  0  0  0  0  0
    0.8675   -0.4975    0.0000 C   0  0  0  0  0  0  0  0  0  0  0  0
    1.7350    0.0000    0.0000 C   0  0  0  0  0  0  0  0  0  0  0  0
    1.7350    1.0052    0.0000 C   0  0  0  0  0  0  0  0  0  0  0  0
    2.6025    1.5026    0.0000 N   0  0  0  0  0  0  0  0  0  0  0  0
    2.6054    2.5026    0.0000 S   0  0  0  0  0  0  0  0  0  0  0  0
    3.6054    2.4997    0.0000 O   0  0  0  0  0  0  0  0  0  0  0  0
    1.6055    2.5056    0.0000 O   0  0  0  0  0  0  0  0  0  0  0  0
    2.6084    3.5026    0.0000 C   0  0  0  0  0  0  0  0  0  0  0  0
    0.8675    1.5129    0.0000 C   0  0  0  0  0  0  0  0  0  0  0  0
   -0.0000    1.0052    0.0000 C   0  0  0  0  0  0  0  0  0  0  0  0
  1  2  1  0
  2  3  1  0
  3  4  1  0
  4  5  1  0
  3  6  1  0
  6  7  1  0
  7  8  1  0
  8  9  1  0
  9 10  2  0
  9 11  1  0
 11 21  2  0
 11 12  1  0
 12 13  2  0
 13 14  1  0
 14 15  1  0
 15 16  1  0
 16 17  2  0
 16 18  2  0
 16 19  1  0
 14 20  2  0
 20 21  1  0
M  END
>  <SMILES>  (269) 
CCN(CC)CCNC(=O)c1ccc(NS(C)(=O)=O)cc1

>  <CollectionName>  (269) 
chembl

>  <LOG PLASMA PROTEIN BINDING (RAT) (% unbound)>  (269) 
1.95380799767

>  <Internal ID>  (269) 


>  <Source>  (269) 
AstraZeneca

$$$$
CHEMBL2181926
     RDKit          2D

 28 30  0  0  1  0  0  0  0  0999 V2000
    2.5952   -2.5050    0.0000 C   0  0  0  0  0  0  0  0  0  0  0  0
    2.5966   -1.5050    0.0000 C   0  0  0  0  0  0  0  0  0  0  0  0
    1.7313   -1.0038    0.0000 O   0  0  0  0  0  0  0  0  0  0  0  0
    1.7328   -0.0038    0.0000 C   0  0  0  0  0  0  0  0  0  0  0  0
    2.5995    0.4950    0.0000 O   0  0  0  0  0  0  0  0  0  0  0  0
    0.8675    0.4975    0.0000 C   0  0  0  0  0  0  0  0  0  0  0  0
    0.8675    1.5027    0.0000 C   0  0  0  0  0  0  0  0  0  0  0  0
    1.7350    2.0001    0.0000 C   0  0  0  0  0  0  0  0  0  0  0  0
   -0.0000    2.0104    0.0000 N   0  0  0  0  0  0  0  0  0  0  0  0
   -0.8675    1.5027    0.0000 C   0  0  0  0  0  0  0  0  0  0  0  0
   -0.8675    0.4975    0.0000 C   0  0  0  0  0  0  0  0  0  0  0  0
    0.0000    0.0000    0.0000 C   0  0  0  0  0  0  0  0  0  0  0  0
    0.0000   -1.7500    0.0000 C   0  0  0  0  0  0  0  0  0  0  0  0
    0.8682   -2.2578    0.0000 C   0  0  0  0  0  0  0  0  0  0  0  0
    0.8685   -3.2635    0.0000 C   0  0  0  0  0  0  0  0  0  0  0  0
    0.0007   -3.7616    0.0000 C   0  0  0  0  0  0  0  0  0  0  0  0
   -0.8675   -3.2653    0.0000 C   0  0  0  0  0  0  0  0  0  0  0  0
   -1.7339   -3.7676    0.0000 C   0  0  0  0  0  0  0  0  0  0  0  0
   -1.7308   -4.7676    0.0000 O   0  0  0  0  0  0  0  0  0  0  0  0
   -2.6076   -3.2683    0.0000 C   0  0  0  0  0  0  0  0  0  0  0  0
   -2.6092   -2.2613    0.0000 C   0  0  0  0  0  0  0  0  0  0  0  0
   -3.4766   -1.7636    0.0000 C   0  0  0  0  0  0  0  0  0  0  0  0
   -1.7372   -1.7535    0.0000 O   0  0  0  0  0  0  0  0  0  0  0  0
   -0.8692   -2.2584    0.0000 C   0  0  0  0  0  0  0  0  0  0  0  0
   -1.7328   -0.0038    0.0000 C   0  0  0  0  0  0  0  0  0  0  0  0
   -1.7313   -1.0038    0.0000 O   0  0  0  0  0  0  0  0  0  0  0  0
   -2.5995    0.4950    0.0000 C   0  0  0  0  0  0  0  0  0  0  0  0
   -1.7350    2.0001    0.0000 C   0  0  0  0  0  0  0  0  0  0  0  0
  1  2  1  0
  2  3  1  0
  3  4  1  0
  4  5  2  0
  4  6  1  0
  6 12  1  0
  6  7  2  0
  7  8  1  0
  7  9  1  0
  9 10  1  0
 10 11  2  0
 11 12  1  0
 12 13  1  6
 13 24  1  0
 13 14  2  0
 14 15  1  0
 15 16  2  0
 16 17  1  0
 17 24  2  0
 17 18  1  0
 18 19  2  0
 18 20  1  0
 20 21  2  0
 21 22  1  0
 21 23  1  0
 23 24  1  0
 11 25  1  0
 25 26  2  0
 25 27  1  0
 10 28  1  0
M  END
>  <SMILES>  (270) 
CCOC(=O)C1=C(C)NC(C)=C(C(C)=O)[C@H]1c1cccc2c(=O)cc(C)oc12

>  <CollectionName>  (270) 
chembl

>  <LOG PLASMA PROTEIN BINDING (RAT) (% unbound)>  (270) 
-1.09691001301

>  <Internal ID>  (270) 


>  <Source>  (270) 
AstraZeneca

$$$$
CHEMBL1112
     RDKit          2D

 30 33  0  0  0  0  0  0  0  0999 V2000
   -4.3524   10.5167    0.0000 Cl  0  0  0  0  0  0  0  0  0  0  0  0
   -3.4878   10.0141    0.0000 C   0  0  0  0  0  0  0  0  0  0  0  0
   -2.6173   10.5167    0.0000 C   0  0  0  0  0  0  0  0  0  0  0  0
   -1.7527   10.0142    0.0000 C   0  0  0  0  0  0  0  0  0  0  0  0
   -1.7498    9.0142    0.0000 C   0  0  0  0  0  0  0  0  0  0  0  0
   -2.6203    8.5116    0.0000 C   0  0  0  0  0  0  0  0  0  0  0  0
   -2.6173    7.5116    0.0000 N   0  0  0  0  0  0  0  0  0  0  0  0
   -3.4833    7.0013    0.0000 C   0  0  0  0  0  0  0  0  0  0  0  0
   -3.4804    5.9961    0.0000 C   0  0  0  0  0  0  0  0  0  0  0  0
   -2.6114    5.5012    0.0000 N   0  0  0  0  0  0  0  0  0  0  0  0
   -2.6084    4.5012    0.0000 C   0  0  0  0  0  0  0  0  0  0  0  0
   -1.7409    4.0038    0.0000 C   0  0  0  0  0  0  0  0  0  0  0  0
   -1.7380    3.0038    0.0000 C   0  0  0  0  0  0  0  0  0  0  0  0
   -0.8705    2.5063    0.0000 C   0  0  0  0  0  0  0  0  0  0  0  0
   -0.8675    1.5063    0.0000 O   0  0  0  0  0  0  0  0  0  0  0  0
    0.0000    1.0089    0.0000 C   0  0  0  0  0  0  0  0  0  0  0  0
    0.0000    0.0000    0.0000 C   0  0  0  0  0  0  0  0  0  0  0  0
    0.8707   -0.4993    0.0000 C   0  0  0  0  0  0  0  0  0  0  0  0
    1.7371   -0.0000    0.0000 C   0  0  0  0  0  0  0  0  0  0  0  0
    2.6039   -0.5053    0.0000 C   0  0  0  0  0  0  0  0  0  0  0  0
    3.4805   -0.0073    0.0000 C   0  0  0  0  0  0  0  0  0  0  0  0
    3.4848    1.0014    0.0000 C   0  0  0  0  0  0  0  0  0  0  0  0
    4.3535    1.4968    0.0000 O   0  0  0  0  0  0  0  0  0  0  0  0
    2.6125    1.5125    0.0000 N   0  0  0  0  0  0  0  0  0  0  0  0
    1.7414    1.0089    0.0000 C   0  0  0  0  0  0  0  0  0  0  0  0
    0.8707    1.5185    0.0000 C   0  0  0  0  0  0  0  0  0  0  0  0
   -1.7454    6.0013    0.0000 C   0  0  0  0  0  0  0  0  0  0  0  0
   -1.7483    7.0064    0.0000 C   0  0  0  0  0  0  0  0  0  0  0  0
   -3.4937    9.0090    0.0000 C   0  0  0  0  0  0  0  0  0  0  0  0
   -4.3598    8.5090    0.0000 Cl  0  0  0  0  0  0  0  0  0  0  0  0
  1  2  1  0
  2 29  2  0
  2  3  1  0
  3  4  2  0
  4  5  1  0
  5  6  2  0
  6  7  1  0
  7 28  1  0
  7  8  1  0
  8  9  1  0
  9 10  1  0
 10 11  1  0
 11 12  1  0
 12 13  1  0
 13 14  1  0
 14 15  1  0
 15 16  1  0
 16 26  1  0
 16 17  2  0
 17 18  1  0
 18 19  2  0
 19 25  1  0
 19 20  1  0
 20 21  1  0
 21 22  1  0
 22 23  2  0
 22 24  1  0
 24 25  1  0
 25 26  2  0
 10 27  1  0
 27 28  1  0
  6 29  1  0
 29 30  1  0
M  END
>  <SMILES>  (271) 
O=C1CCc2ccc(OCCCCN3CCN(c4cccc(Cl)c4Cl)CC3)cc2N1

>  <CollectionName>  (271) 
chembl

>  <LOG PLASMA PROTEIN BINDING (RAT) (% unbound)>  (271) 
-1.04575749056

>  <Internal ID>  (271) 


>  <Source>  (271) 
AstraZeneca

$$$$
CHEMBL1113
     RDKit          2D

 22 25  0  0  0  0  0  0  0  0999 V2000
    6.6129    0.3497    0.0000 Cl  0  0  0  0  0  0  0  0  0  0  0  0
    5.6612    0.0428    0.0000 C   0  0  0  0  0  0  0  0  0  0  0  0
    5.4510   -0.9405    0.0000 C   0  0  0  0  0  0  0  0  0  0  0  0
    4.4941   -1.2472    0.0000 C   0  0  0  0  0  0  0  0  0  0  0  0
    3.7517   -0.5772    0.0000 C   0  0  0  0  0  0  0  0  0  0  0  0
    2.8446   -1.0154    0.0000 O   0  0  0  0  0  0  0  0  0  0  0  0
    1.9312   -0.5840    0.0000 C   0  0  0  0  0  0  0  0  0  0  0  0
    1.2003   -1.2778    0.0000 C   0  0  0  0  0  0  0  0  0  0  0  0
    0.2313   -0.9837    0.0000 C   0  0  0  0  0  0  0  0  0  0  0  0
    0.0000    0.0000    0.0000 C   0  0  0  0  0  0  0  0  0  0  0  0
    0.7377    0.6898    0.0000 C   0  0  0  0  0  0  0  0  0  0  0  0
    1.6999    0.3997    0.0000 C   0  0  0  0  0  0  0  0  0  0  0  0
    2.3292    1.1930    0.0000 N   0  0  0  0  0  0  0  0  0  0  0  0
    3.3333    1.1944    0.0000 C   0  0  0  0  0  0  0  0  0  0  0  0
    3.7665    2.0957    0.0000 N   0  0  0  0  0  0  0  0  0  0  0  0
    4.7683    2.1775    0.0000 C   0  0  0  0  0  0  0  0  0  0  0  0
    5.2038    3.0834    0.0000 C   0  0  0  0  0  0  0  0  0  0  0  0
    4.6374    3.9077    0.0000 N   0  0  0  0  0  0  0  0  0  0  0  0
    3.6400    3.8351    0.0000 C   0  0  0  0  0  0  0  0  0  0  0  0
    3.2046    2.9291    0.0000 C   0  0  0  0  0  0  0  0  0  0  0  0
    3.9620    0.4062    0.0000 C   0  0  0  0  0  0  0  0  0  0  0  0
    4.9146    0.7195    0.0000 C   0  0  0  0  0  0  0  0  0  0  0  0
  1  2  1  0
  2 22  2  0
  2  3  1  0
  3  4  2  0
  4  5  1  0
  5 21  2  0
  5  6  1  0
  6  7  1  0
  7 12  2  0
  7  8  1  0
  8  9  2  0
  9 10  1  0
 10 11  2  0
 11 12  1  0
 12 13  1  0
 13 14  2  0
 14 15  1  0
 15 20  1  0
 15 16  1  0
 16 17  1  0
 17 18  1  0
 18 19  1  0
 19 20  1  0
 14 21  1  0
 21 22  1  0
M  END
>  <SMILES>  (272) 
Clc1ccc2c(c1)C(N1CCNCC1)=Nc1ccccc1O2

>  <CollectionName>  (272) 
chembl

>  <LOG PLASMA PROTEIN BINDING (RAT) (% unbound)>  (272) 
1.00389116624

>  <Internal ID>  (272) 


>  <Source>  (272) 
AstraZeneca

$$$$
CHEMBL85
     RDKit          2D

 30 34  0  0  0  0  0  0  0  0999 V2000
    4.3408   -0.4979    0.0000 C   0  0  0  0  0  0  0  0  0  0  0  0
    3.4748    0.0022    0.0000 C   0  0  0  0  0  0  0  0  0  0  0  0
    3.4735    1.0079    0.0000 C   0  0  0  0  0  0  0  0  0  0  0  0
    4.3394    1.5081    0.0000 C   0  0  0  0  0  0  0  0  0  0  0  0
    5.2056    1.0084    0.0000 C   0  0  0  0  0  0  0  0  0  0  0  0
    6.0714    1.5086    0.0000 N   0  0  0  0  0  0  0  0  0  0  0  0
    6.9450    1.0114    0.0000 C   0  0  0  0  0  0  0  0  0  0  0  0
    7.8154    1.5142    0.0000 C   0  0  0  0  0  0  0  0  0  0  0  0
    7.8122    2.5143    0.0000 C   0  0  0  0  0  0  0  0  0  0  0  0
    6.9475    3.0166    0.0000 C   0  0  0  0  0  0  0  0  0  0  0  0
    6.0771    2.5137    0.0000 C   0  0  0  0  0  0  0  0  0  0  0  0
    8.6781    3.0145    0.0000 C   0  0  0  0  0  0  0  0  0  0  0  0
    9.5983    2.6052    0.0000 N   0  0  0  0  0  0  0  0  0  0  0  0
   10.2719    3.3538    0.0000 O   0  0  0  0  0  0  0  0  0  0  0  0
    9.7681    4.2259    0.0000 C   0  0  0  0  0  0  0  0  0  0  0  0
   10.0841    5.1807    0.0000 C   0  0  0  0  0  0  0  0  0  0  0  0
    9.4065    5.9238    0.0000 C   0  0  0  0  0  0  0  0  0  0  0  0
    9.7123    6.8759    0.0000 F   0  0  0  0  0  0  0  0  0  0  0  0
    8.4227    5.7143    0.0000 C   0  0  0  0  0  0  0  0  0  0  0  0
    8.1167    4.7617    0.0000 C   0  0  0  0  0  0  0  0  0  0  0  0
    8.7832    4.0162    0.0000 C   0  0  0  0  0  0  0  0  0  0  0  0
    2.6012    1.5124    0.0000 C   0  0  0  0  0  0  0  0  0  0  0  0
    2.5985    2.5124    0.0000 O   0  0  0  0  0  0  0  0  0  0  0  0
    1.7358    1.0057    0.0000 N   0  0  0  0  0  0  0  0  0  0  0  0
    0.8679    1.5135    0.0000 C   0  0  0  0  0  0  0  0  0  0  0  0
    0.0000    1.0057    0.0000 C   0  0  0  0  0  0  0  0  0  0  0  0
    0.0000    0.0000    0.0000 C   0  0  0  0  0  0  0  0  0  0  0  0
    0.8679   -0.4978    0.0000 C   0  0  0  0  0  0  0  0  0  0  0  0
    1.7371    0.0000    0.0000 C   0  0  0  0  0  0  0  0  0  0  0  0
    2.6038   -0.4989    0.0000 N   0  0  0  0  0  0  0  0  0  0  0  0
  1  2  1  0
  2 30  1  0
  2  3  2  0
  3  4  1  0
  4  5  1  0
  5  6  1  0
  6 11  1  0
  6  7  1  0
  7  8  1  0
  8  9  1  0
  9 10  1  0
 10 11  1  0
  9 12  1  0
 12 21  1  0
 12 13  2  0
 13 14  1  0
 14 15  1  0
 15 21  2  0
 15 16  1  0
 16 17  2  0
 17 18  1  0
 17 19  1  0
 19 20  2  0
 20 21  1  0
  3 22  1  0
 22 23  2  0
 22 24  1  0
 24 29  1  0
 24 25  1  0
 25 26  1  0
 26 27  1  0
 27 28  1  0
 28 29  1  0
 29 30  2  0
M  END
>  <SMILES>  (273) 
Cc1nc2n(c(=O)c1CCN1CCC(c3noc4cc(F)ccc34)CC1)CCCC2

>  <CollectionName>  (273) 
chembl

>  <LOG PLASMA PROTEIN BINDING (RAT) (% unbound)>  (273) 
0.735598899698

>  <Internal ID>  (273) 


>  <Source>  (273) 
AstraZeneca

$$$$
CHEMBL1073
     RDKit          2D

 31 33  0  0  0  0  0  0  0  0999 V2000
   -0.8653   -0.5013    0.0000 C   0  0  0  0  0  0  0  0  0  0  0  0
    0.0000    0.0000    0.0000 C   0  0  0  0  0  0  0  0  0  0  0  0
    0.0000    1.0052    0.0000 C   0  0  0  0  0  0  0  0  0  0  0  0
    0.8675    1.5129    0.0000 N   0  0  0  0  0  0  0  0  0  0  0  0
    1.7350    1.0052    0.0000 C   0  0  0  0  0  0  0  0  0  0  0  0
    1.7350    0.0000    0.0000 C   0  0  0  0  0  0  0  0  0  0  0  0
    0.8675   -0.4975    0.0000 N   0  0  0  0  0  0  0  0  0  0  0  0
    2.6025    1.5026    0.0000 C   0  0  0  0  0  0  0  0  0  0  0  0
    2.6054    2.5026    0.0000 O   0  0  0  0  0  0  0  0  0  0  0  0
    3.4670    1.0001    0.0000 N   0  0  0  0  0  0  0  0  0  0  0  0
    4.3345    1.4975    0.0000 C   0  0  0  0  0  0  0  0  0  0  0  0
    5.1991    0.9950    0.0000 C   0  0  0  0  0  0  0  0  0  0  0  0
    6.0666    1.4924    0.0000 C   0  0  0  0  0  0  0  0  0  0  0  0
    6.9319    0.9911    0.0000 C   0  0  0  0  0  0  0  0  0  0  0  0
    7.8016    1.4848    0.0000 C   0  0  0  0  0  0  0  0  0  0  0  0
    7.8060    2.4900    0.0000 C   0  0  0  0  0  0  0  0  0  0  0  0
    6.9407    3.0015    0.0000 C   0  0  0  0  0  0  0  0  0  0  0  0
    6.0710    2.4976    0.0000 C   0  0  0  0  0  0  0  0  0  0  0  0
    8.6757    2.9836    0.0000 S   0  0  0  0  0  0  0  0  0  0  0  0
    8.1821    3.8533    0.0000 O   0  0  0  0  0  0  0  0  0  0  0  0
    9.1693    2.1139    0.0000 O   0  0  0  0  0  0  0  0  0  0  0  0
    9.5453    3.4772    0.0000 N   0  0  0  0  0  0  0  0  0  0  0  0
    9.5527    4.4772    0.0000 C   0  0  0  0  0  0  0  0  0  0  0  0
    8.6904    4.9835    0.0000 O   0  0  0  0  0  0  0  0  0  0  0  0
   10.4224    4.9708    0.0000 N   0  0  0  0  0  0  0  0  0  0  0  0
   10.4297    5.9708    0.0000 C   0  0  0  0  0  0  0  0  0  0  0  0
    9.5614    6.4772    0.0000 C   0  0  0  0  0  0  0  0  0  0  0  0
    9.5687    7.4772    0.0000 C   0  0  0  0  0  0  0  0  0  0  0  0
   10.4355    7.9759    0.0000 C   0  0  0  0  0  0  0  0  0  0  0  0
   11.3038    7.4695    0.0000 C   0  0  0  0  0  0  0  0  0  0  0  0
   11.3053    6.4644    0.0000 C   0  0  0  0  0  0  0  0  0  0  0  0
  1  2  1  0
  2  7  2  0
  2  3  1  0
  3  4  2  0
  4  5  1  0
  5  6  2  0
  6  7  1  0
  5  8  1  0
  8  9  2  0
  8 10  1  0
 10 11  1  0
 11 12  1  0
 12 13  1  0
 13 18  1  0
 13 14  2  0
 14 15  1  0
 15 16  2  0
 16 17  1  0
 17 18  2  0
 16 19  1  0
 19 20  2  0
 19 21  2  0
 19 22  1  0
 22 23  1  0
 23 24  2  0
 23 25  1  0
 25 26  1  0
 26 31  1  0
 26 27  1  0
 27 28  1  0
 28 29  1  0
 29 30  1  0
 30 31  1  0
M  END
>  <SMILES>  (274) 
Cc1cnc(C(=O)NCCc2ccc(S(=O)(=O)NC(=O)NC3CCCCC3)cc2)cn1

>  <CollectionName>  (274) 
chembl

>  <LOG PLASMA PROTEIN BINDING (RAT) (% unbound)>  (274) 
0.350248018334

>  <Internal ID>  (274) 


>  <Source>  (274) 
AstraZeneca

$$$$
CHEMBL397647
     RDKit          2D

 27 29  0  0  0  0  0  0  0  0999 V2000
    1.0000   -1.0000    0.0000 C   0  0  0  0  0  0  0  0  0  0  0  0
    0.0000   -1.0000    0.0000 N   0  0  0  0  0  0  0  0  0  0  0  0
   -1.0000   -1.0000    0.0000 C   0  0  0  0  0  0  0  0  0  0  0  0
    0.0000   -2.0000    0.0000 C   0  0  0  0  0  0  0  0  0  0  0  0
   -0.8660   -2.5000    0.0000 C   0  0  0  0  0  0  0  0  0  0  0  0
   -1.7328   -2.0012    0.0000 C   0  0  0  0  0  0  0  0  0  0  0  0
   -2.6010   -2.4975    0.0000 C   0  0  0  0  0  0  0  0  0  0  0  0
   -2.6025   -3.5027    0.0000 C   0  0  0  0  0  0  0  0  0  0  0  0
   -3.4707   -3.9989    0.0000 N   0  0  0  0  0  0  0  0  0  0  0  0
   -3.4751   -4.9989    0.0000 C   0  0  0  0  0  0  0  0  0  0  0  0
   -2.6113   -5.5027    0.0000 O   0  0  0  0  0  0  0  0  0  0  0  0
   -4.3433   -5.4950    0.0000 C   0  0  0  0  0  0  0  0  0  0  0  0
   -5.2101   -4.9861    0.0000 C   0  0  0  0  0  0  0  0  0  0  0  0
   -6.0784   -5.4822    0.0000 C   0  0  0  0  0  0  0  0  0  0  0  0
   -6.0887   -6.4822    0.0000 C   0  0  0  0  0  0  0  0  0  0  0  0
   -6.9590   -6.9745    0.0000 Cl  0  0  0  0  0  0  0  0  0  0  0  0
   -5.2218   -6.9912    0.0000 C   0  0  0  0  0  0  0  0  0  0  0  0
   -5.2321   -7.9911    0.0000 Cl  0  0  0  0  0  0  0  0  0  0  0  0
   -4.3448   -6.5002    0.0000 C   0  0  0  0  0  0  0  0  0  0  0  0
   -1.7357   -4.0116    0.0000 C   0  0  0  0  0  0  0  0  0  0  0  0
   -0.8675   -3.5052    0.0000 C   0  0  0  0  0  0  0  0  0  0  0  0
    0.0000    0.0000    0.0000 C   0  0  0  0  0  0  0  0  0  0  0  0
   -0.8675    0.4975    0.0000 C   0  0  0  0  0  0  0  0  0  0  0  0
   -0.8675    1.5027    0.0000 C   0  0  0  0  0  0  0  0  0  0  0  0
   -0.0000    2.0104    0.0000 O   0  0  0  0  0  0  0  0  0  0  0  0
    0.8675    1.5027    0.0000 C   0  0  0  0  0  0  0  0  0  0  0  0
    0.8675    0.4975    0.0000 C   0  0  0  0  0  0  0  0  0  0  0  0
  1  2  1  0
  2  3  1  0
  2  4  1  0
  4  5  1  0
  5 21  1  0
  5  6  2  0
  6  7  1  0
  7  8  2  0
  8  9  1  0
  9 10  1  0
 10 11  2  0
 10 12  1  0
 12 19  1  0
 12 13  2  0
 13 14  1  0
 14 15  2  0
 15 16  1  0
 15 17  1  0
 17 18  1  0
 17 19  2  0
  8 20  1  0
 20 21  2  0
  2 22  1  0
 22 27  1  0
 22 23  1  0
 23 24  1  0
 24 25  1  0
 25 26  1  0
 26 27  1  0
M  CHG  1   2   1
M  END
>  <SMILES>  (275) 
C[N+](C)(Cc1ccc(NC(=O)c2ccc(Cl)c(Cl)c2)cc1)C1CCOCC1

>  <CollectionName>  (275) 
chembl

>  <LOG PLASMA PROTEIN BINDING (RAT) (% unbound)>  (275) 
1.58759872972

>  <Internal ID>  (275) 


>  <Source>  (275) 
AstraZeneca

$$$$
CHEMBL1467761
     RDKit          2D

 28 31  0  0  0  0  0  0  0  0999 V2000
    3.0028   -1.2636    0.0000 C   0  0  0  0  0  0  0  0  0  0  0  0
    2.6938   -0.3125    0.0000 C   0  0  0  0  0  0  0  0  0  0  0  0
    3.2858    0.5023    0.0000 C   0  0  0  0  0  0  0  0  0  0  0  0
    2.6938    1.3169    0.0000 S   0  0  0  0  0  0  0  0  0  0  0  0
    1.7360    1.0058    0.0000 C   0  0  0  0  0  0  0  0  0  0  0  0
    0.8680    1.5138    0.0000 C   0  0  0  0  0  0  0  0  0  0  0  0
    0.0000    1.0058    0.0000 N   0  0  0  0  0  0  0  0  0  0  0  0
    0.0000    0.0000    0.0000 C   0  0  0  0  0  0  0  0  0  0  0  0
    0.8680   -0.4978    0.0000 N   0  0  0  0  0  0  0  0  0  0  0  0
    1.7360   -0.0012    0.0000 C   0  0  0  0  0  0  0  0  0  0  0  0
    0.8680    2.5138    0.0000 N   0  0  0  0  0  0  0  0  0  0  0  0
    0.0005    3.0113    0.0000 C   0  0  0  0  0  0  0  0  0  0  0  0
    0.0005    4.0165    0.0000 C   0  0  0  0  0  0  0  0  0  0  0  0
    0.8680    4.5242    0.0000 N   0  0  0  0  0  0  0  0  0  0  0  0
    1.7355    4.0165    0.0000 C   0  0  0  0  0  0  0  0  0  0  0  0
    1.7355    3.0113    0.0000 C   0  0  0  0  0  0  0  0  0  0  0  0
    0.8680    5.5242    0.0000 C   0  0  0  0  0  0  0  0  0  0  0  0
    0.0020    6.0242    0.0000 O   0  0  0  0  0  0  0  0  0  0  0  0
    1.7340    6.0242    0.0000 C   0  0  0  0  0  0  0  0  0  0  0  0
    2.6008    5.5254    0.0000 C   0  0  0  0  0  0  0  0  0  0  0  0
    3.4690    6.0217    0.0000 C   0  0  0  0  0  0  0  0  0  0  0  0
    3.4705    7.0269    0.0000 C   0  0  0  0  0  0  0  0  0  0  0  0
    2.6037    7.5358    0.0000 C   0  0  0  0  0  0  0  0  0  0  0  0
    1.7355    7.0294    0.0000 C   0  0  0  0  0  0  0  0  0  0  0  0
    4.3387    7.5231    0.0000 C   0  0  0  0  0  0  0  0  0  0  0  0
    5.2069    8.0192    0.0000 C   0  0  0  0  0  0  0  0  0  0  0  0
    4.8349    6.6548    0.0000 C   0  0  0  0  0  0  0  0  0  0  0  0
    3.8425    8.3913    0.0000 C   0  0  0  0  0  0  0  0  0  0  0  0
  1  2  1  0
  2 10  1  0
  2  3  2  0
  3  4  1  0
  4  5  1  0
  5 10  2  0
  5  6  1  0
  6  7  2  0
  7  8  1  0
  8  9  2  0
  9 10  1  0
  6 11  1  0
 11 16  1  0
 11 12  1  0
 12 13  1  0
 13 14  1  0
 14 15  1  0
 15 16  1  0
 14 17  1  0
 17 18  2  0
 17 19  1  0
 19 24  1  0
 19 20  2  0
 20 21  1  0
 21 22  2  0
 22 23  1  0
 23 24  2  0
 22 25  1  0
 25 26  1  0
 25 27  1  0
 25 28  1  0
M  END
>  <SMILES>  (276) 
Cc1csc2c(N3CCN(C(=O)c4ccc(C(C)(C)C)cc4)CC3)ncnc12

>  <CollectionName>  (276) 
chembl

>  <LOG PLASMA PROTEIN BINDING (RAT) (% unbound)>  (276) 
-0.36653154442

>  <Internal ID>  (276) 


>  <Source>  (276) 
AstraZeneca

$$$$
CHEMBL1615283
     RDKit          2D

 37 40  0  0  1  0  0  0  0  0999 V2000
   -4.3907   -8.4538    0.0000 C   0  0  0  0  0  0  0  0  0  0  0  0
   -3.5197   -7.9625    0.0000 C   0  0  0  0  0  0  0  0  0  0  0  0
   -4.0111   -7.0915    0.0000 C   0  0  0  0  0  0  0  0  0  0  0  0
   -3.0284   -8.8335    0.0000 C   0  0  0  0  0  0  0  0  0  0  0  0
   -2.6488   -7.4711    0.0000 O   0  0  0  0  0  0  0  0  0  0  0  0
   -2.6388   -6.4712    0.0000 C   0  0  0  0  0  0  0  0  0  0  0  0
   -3.4998   -5.9626    0.0000 O   0  0  0  0  0  0  0  0  0  0  0  0
   -1.7678   -5.9799    0.0000 N   0  0  0  0  0  0  0  0  0  0  0  0
   -1.7578   -4.9799    0.0000 C   0  0  0  0  0  0  0  0  0  0  0  0
   -0.8869   -4.4886    0.0000 C   0  0  0  0  0  0  0  0  0  0  0  0
   -0.8798   -3.4834    0.0000 C   0  0  0  0  0  0  0  0  0  0  0  0
   -0.0088   -2.9920    0.0000 C   0  0  0  0  0  0  0  0  0  0  0  0
    0.8552   -3.4956    0.0000 C   0  0  0  0  0  0  0  0  0  0  0  0
    1.7240   -3.0004    0.0000 C   0  0  0  0  0  0  0  0  0  0  0  0
    1.7295   -2.0004    0.0000 N   0  0  0  0  0  0  0  0  0  0  0  0
    2.5983   -1.5053    0.0000 C   0  0  0  0  0  0  0  0  0  0  0  0
    3.4615   -2.0101    0.0000 O   0  0  0  0  0  0  0  0  0  0  0  0
    2.6039   -0.5053    0.0000 C   0  0  0  0  0  0  0  0  0  0  0  0
    3.4805   -0.0073    0.0000 C   0  0  0  0  0  0  0  0  0  0  0  0
    3.4848    1.0014    0.0000 C   0  0  0  0  0  0  0  0  0  0  0  0
    2.6125    1.5125    0.0000 N   0  0  0  0  0  0  0  0  0  0  0  0
    1.7414    1.0089    0.0000 C   0  0  0  0  0  0  0  0  0  0  0  0
    0.8707    1.5185    0.0000 C   0  0  0  0  0  0  0  0  0  0  0  0
    0.0000    1.0089    0.0000 C   0  0  0  0  0  0  0  0  0  0  0  0
    0.0000    0.0000    0.0000 C   0  0  0  0  0  0  0  0  0  0  0  0
    0.8707   -0.4993    0.0000 C   0  0  0  0  0  0  0  0  0  0  0  0
    1.7371    0.0000    0.0000 C   0  0  0  0  0  0  0  0  0  0  0  0
    4.3535    1.4968    0.0000 C   0  0  0  0  0  0  0  0  0  0  0  0
    4.3559    2.5020    0.0000 C   0  0  0  0  0  0  0  0  0  0  0  0
    5.2246    2.9974    0.0000 C   0  0  0  0  0  0  0  0  0  0  0  0
    6.0909    2.4978    0.0000 C   0  0  0  0  0  0  0  0  0  0  0  0
    6.9574    2.9970    0.0000 C   0  0  0  0  0  0  0  0  0  0  0  0
    6.9583    3.9970    0.0000 N   0  0  0  0  0  0  0  0  0  0  0  0
    6.0885    1.4926    0.0000 C   0  0  0  0  0  0  0  0  0  0  0  0
    5.2198    0.9870    0.0000 C   0  0  0  0  0  0  0  0  0  0  0  0
    0.8481   -4.5008    0.0000 C   0  0  0  0  0  0  0  0  0  0  0  0
   -0.0230   -5.0024    0.0000 C   0  0  0  0  0  0  0  0  0  0  0  0
  1  2  1  0
  2  3  1  0
  2  4  1  0
  2  5  1  0
  5  6  1  0
  6  7  2  0
  6  8  1  0
  8  9  1  0
 10  9  1  6
 10 37  1  0
 10 11  1  0
 11 12  1  0
 12 13  1  0
 13 14  1  1
 14 15  1  0
 15 16  1  0
 16 17  2  0
 16 18  1  0
 18 27  1  0
 18 19  2  0
 19 20  1  0
 20 21  2  0
 21 22  1  0
 22 27  2  0
 22 23  1  0
 23 24  2  0
 24 25  1  0
 25 26  2  0
 26 27  1  0
 20 28  1  0
 28 35  1  0
 28 29  2  0
 29 30  1  0
 30 31  2  0
 31 32  1  0
 32 33  1  0
 31 34  1  0
 34 35  2  0
 13 36  1  0
 36 37  1  0
M  END
>  <SMILES>  (277) 
CC(C)(C)OC(=O)NC[C@H]1CC[C@H](CNC(=O)c2cc(-c3ccc(CN)cc3)nc3ccccc23)CC1

>  <CollectionName>  (277) 
chembl

>  <LOG PLASMA PROTEIN BINDING (RAT) (% unbound)>  (277) 
0.143014800254

>  <Internal ID>  (277) 


>  <Source>  (277) 
AstraZeneca

$$$$
CHEMBL2147309
     RDKit          2D

 33 35  0  0  0  0  0  0  0  0999 V2000
   -6.0976    4.5001    0.0000 C   0  0  0  0  0  0  0  0  0  0  0  0
   -6.0888    3.5002    0.0000 C   0  0  0  0  0  0  0  0  0  0  0  0
   -5.2146    3.0040    0.0000 C   0  0  0  0  0  0  0  0  0  0  0  0
   -5.2013    1.9989    0.0000 N   0  0  0  0  0  0  0  0  0  0  0  0
   -6.0710    1.4951    0.0000 C   0  0  0  0  0  0  0  0  0  0  0  0
   -6.9452    1.9913    0.0000 C   0  0  0  0  0  0  0  0  0  0  0  0
   -6.9497    2.9913    0.0000 N   0  0  0  0  0  0  0  0  0  0  0  0
   -6.0666    0.4951    0.0000 C   0  0  0  0  0  0  0  0  0  0  0  0
   -6.9319   -0.0164    0.0000 C   0  0  0  0  0  0  0  0  0  0  0  0
   -7.8016    0.4772    0.0000 F   0  0  0  0  0  0  0  0  0  0  0  0
   -6.9275   -1.0216    0.0000 C   0  0  0  0  0  0  0  0  0  0  0  0
   -6.0578   -1.5153    0.0000 C   0  0  0  0  0  0  0  0  0  0  0  0
   -5.1925   -1.0140    0.0000 C   0  0  0  0  0  0  0  0  0  0  0  0
   -4.3250   -1.5114    0.0000 F   0  0  0  0  0  0  0  0  0  0  0  0
   -5.1969   -0.0088    0.0000 C   0  0  0  0  0  0  0  0  0  0  0  0
   -4.3316    0.4925    0.0000 C   0  0  0  0  0  0  0  0  0  0  0  0
   -3.4648   -0.0063    0.0000 C   0  0  0  0  0  0  0  0  0  0  0  0
   -2.5995    0.4950    0.0000 N   0  0  0  0  0  0  0  0  0  0  0  0
   -1.7328   -0.0038    0.0000 C   0  0  0  0  0  0  0  0  0  0  0  0
   -1.7313   -1.0038    0.0000 O   0  0  0  0  0  0  0  0  0  0  0  0
   -0.8675    0.4975    0.0000 C   0  0  0  0  0  0  0  0  0  0  0  0
    0.0000    0.0000    0.0000 C   0  0  0  0  0  0  0  0  0  0  0  0
    0.8675    0.4975    0.0000 C   0  0  0  0  0  0  0  0  0  0  0  0
    0.8675    1.5027    0.0000 C   0  0  0  0  0  0  0  0  0  0  0  0
    1.7350    2.0001    0.0000 C   0  0  0  0  0  0  0  0  0  0  0  0
    1.7379    3.0001    0.0000 O   0  0  0  0  0  0  0  0  0  0  0  0
    2.6054    3.4976    0.0000 C   0  0  0  0  0  0  0  0  0  0  0  0
    2.6084    4.4976    0.0000 C   0  0  0  0  0  0  0  0  0  0  0  0
    1.6084    4.5005    0.0000 F   0  0  0  0  0  0  0  0  0  0  0  0
    3.6084    4.4946    0.0000 F   0  0  0  0  0  0  0  0  0  0  0  0
    2.6113    5.4976    0.0000 F   0  0  0  0  0  0  0  0  0  0  0  0
    0.0000    2.0104    0.0000 N   0  0  0  0  0  0  0  0  0  0  0  0
   -0.8675    1.5027    0.0000 C   0  0  0  0  0  0  0  0  0  0  0  0
  1  2  1  0
  2  7  2  0
  2  3  1  0
  3  4  2  0
  4  5  1  0
  5  6  2  0
  6  7  1  0
  5  8  1  0
  8 15  1  0
  8  9  2  0
  9 10  1  0
  9 11  1  0
 11 12  2  0
 12 13  1  0
 13 14  1  0
 13 15  2  0
 15 16  1  0
 16 17  1  0
 17 18  1  0
 18 19  1  0
 19 20  2  0
 19 21  1  0
 21 33  1  0
 21 22  2  0
 22 23  1  0
 23 24  2  0
 24 25  1  0
 25 26  1  0
 26 27  1  0
 27 28  1  0
 28 29  1  0
 28 30  1  0
 28 31  1  0
 24 32  1  0
 32 33  2  0
M  END
>  <SMILES>  (278) 
Cc1cnc(-c2c(F)ccc(F)c2CCNC(=O)c2ccc(COCC(F)(F)F)nc2)cn1

>  <CollectionName>  (278) 
chembl

>  <LOG PLASMA PROTEIN BINDING (RAT) (% unbound)>  (278) 
1.44731310882

>  <Internal ID>  (278) 


>  <Source>  (278) 
AstraZeneca

$$$$
CHEMBL2147317
     RDKit          2D

 35 37  0  0  0  0  0  0  0  0999 V2000
   -0.2300    3.8883    0.0000 C   0  0  0  0  0  0  0  0  0  0  0  0
   -1.0960    4.3883    0.0000 O   0  0  0  0  0  0  0  0  0  0  0  0
   -1.9620    3.8883    0.0000 C   0  0  0  0  0  0  0  0  0  0  0  0
   -1.9591    2.8831    0.0000 C   0  0  0  0  0  0  0  0  0  0  0  0
   -2.8251    2.3831    0.0000 N   0  0  0  0  0  0  0  0  0  0  0  0
   -3.6941    2.8780    0.0000 C   0  0  0  0  0  0  0  0  0  0  0  0
   -3.6970    3.8832    0.0000 C   0  0  0  0  0  0  0  0  0  0  0  0
   -2.8310    4.3934    0.0000 N   0  0  0  0  0  0  0  0  0  0  0  0
   -5.2057    1.9963    0.0000 C   0  0  0  0  0  0  0  0  0  0  0  0
   -6.0770    2.4977    0.0000 C   0  0  0  0  0  0  0  0  0  0  0  0
   -6.9409    1.9939    0.0000 C   0  0  0  0  0  0  0  0  0  0  0  0
   -6.9423    0.9939    0.0000 C   0  0  0  0  0  0  0  0  0  0  0  0
   -6.0711    0.4925    0.0000 C   0  0  0  0  0  0  0  0  0  0  0  0
   -6.0726   -0.5075    0.0000 F   0  0  0  0  0  0  0  0  0  0  0  0
   -5.1983    0.9912    0.0000 C   0  0  0  0  0  0  0  0  0  0  0  0
   -4.3316    0.4925    0.0000 C   0  0  0  0  0  0  0  0  0  0  0  0
   -4.8303   -0.3743    0.0000 F   0  0  0  0  0  0  0  0  0  0  0  0
   -3.8329    1.3592    0.0000 F   0  0  0  0  0  0  0  0  0  0  0  0
   -3.4648   -0.0063    0.0000 C   0  0  0  0  0  0  0  0  0  0  0  0
   -2.5995    0.4950    0.0000 N   0  0  0  0  0  0  0  0  0  0  0  0
   -1.7328   -0.0038    0.0000 C   0  0  0  0  0  0  0  0  0  0  0  0
   -1.7313   -1.0038    0.0000 O   0  0  0  0  0  0  0  0  0  0  0  0
   -0.8675    0.4975    0.0000 C   0  0  0  0  0  0  0  0  0  0  0  0
    0.0000    0.0000    0.0000 C   0  0  0  0  0  0  0  0  0  0  0  0
    0.8675    0.4975    0.0000 C   0  0  0  0  0  0  0  0  0  0  0  0
    0.8675    1.5027    0.0000 C   0  0  0  0  0  0  0  0  0  0  0  0
    1.7350    2.0001    0.0000 C   0  0  0  0  0  0  0  0  0  0  0  0
    1.7379    3.0001    0.0000 O   0  0  0  0  0  0  0  0  0  0  0  0
    2.6054    3.4976    0.0000 C   0  0  0  0  0  0  0  0  0  0  0  0
    2.6084    4.4976    0.0000 C   0  0  0  0  0  0  0  0  0  0  0  0
    1.6084    4.5005    0.0000 F   0  0  0  0  0  0  0  0  0  0  0  0
    3.6084    4.4946    0.0000 F   0  0  0  0  0  0  0  0  0  0  0  0
    2.6113    5.4976    0.0000 F   0  0  0  0  0  0  0  0  0  0  0  0
    0.0000    2.0104    0.0000 N   0  0  0  0  0  0  0  0  0  0  0  0
   -0.8675    1.5027    0.0000 C   0  0  0  0  0  0  0  0  0  0  0  0
  1  2  1  0
  2  3  1  0
  3  8  2  0
  3  4  1  0
  4  5  2  0
  5  6  1  0
  6  7  2  0
  7  8  1  0
  6  9  1  0
  9 15  1  0
  9 10  2  0
 10 11  1  0
 11 12  2  0
 12 13  1  0
 13 14  1  0
 13 15  2  0
 15 16  1  0
 16 17  1  0
 16 18  1  0
 16 19  1  0
 19 20  1  0
 20 21  1  0
 21 22  2  0
 21 23  1  0
 23 35  1  0
 23 24  2  0
 24 25  1  0
 25 26  2  0
 26 27  1  0
 27 28  1  0
 28 29  1  0
 29 30  1  0
 30 31  1  0
 30 32  1  0
 30 33  1  0
 26 34  1  0
 34 35  2  0
M  END
>  <SMILES>  (279) 
COc1cnc(-c2cccc(F)c2C(F)(F)CNC(=O)c2ccc(COCC(F)(F)F)nc2)cn1

>  <CollectionName>  (279) 
chembl

>  <LOG PLASMA PROTEIN BINDING (RAT) (% unbound)>  (279) 
0.65991620007

>  <Internal ID>  (279) 


>  <Source>  (279) 
AstraZeneca

$$$$
CHEMBL2147569
     RDKit          2D

 33 37  0  0  1  0  0  0  0  0999 V2000
   -2.4078    0.0031    0.0000 C   0  0  0  0  0  0  0  0  0  0  0  0
   -1.5403    0.5005    0.0000 C   0  0  0  0  0  0  0  0  0  0  0  0
   -2.4077    1.0082    0.0000 C   0  0  0  0  0  0  0  0  0  0  0  0
   -3.2752    0.5061    0.0000 C   0  0  0  0  0  0  0  0  0  0  0  0
   -4.2364    0.8185    0.0000 C   0  0  0  0  0  0  0  0  0  0  0  0
   -4.8306    0.0007    0.0000 N   0  0  0  0  0  0  0  0  0  0  0  0
   -4.2365   -0.8168    0.0000 N   0  0  0  0  0  0  0  0  0  0  0  0
   -3.2752   -0.5047    0.0000 C   0  0  0  0  0  0  0  0  0  0  0  0
   -2.4077   -1.0022    0.0000 C   0  0  0  0  0  0  0  0  0  0  0  0
   -1.5403   -0.5004    0.0000 C   0  0  0  0  0  0  0  0  0  0  0  0
   -0.5885   -0.8098    0.0000 C   0  0  0  0  0  0  0  0  0  0  0  0
    0.0000    0.0000    0.0000 C   0  0  0  0  0  0  0  0  0  0  0  0
   -0.5883    0.8096    0.0000 C   0  0  0  0  0  0  0  0  0  0  0  0
    0.2777    1.3096    0.0000 O   0  0  0  0  0  0  0  0  0  0  0  0
   -0.9949    1.7232    0.0000 C   0  0  0  0  0  0  0  0  0  0  0  0
   -0.4070    2.5321    0.0000 C   0  0  0  0  0  0  0  0  0  0  0  0
   -0.8137    3.4457    0.0000 C   0  0  0  0  0  0  0  0  0  0  0  0
   -1.8081    3.5518    0.0000 C   0  0  0  0  0  0  0  0  0  0  0  0
   -2.2187    4.4637    0.0000 C   0  0  0  0  0  0  0  0  0  0  0  0
   -1.6289    5.2777    0.0000 C   0  0  0  0  0  0  0  0  0  0  0  0
   -2.0396    6.1895    0.0000 F   0  0  0  0  0  0  0  0  0  0  0  0
   -0.6286    5.1798    0.0000 C   0  0  0  0  0  0  0  0  0  0  0  0
   -0.2239    4.2597    0.0000 C   0  0  0  0  0  0  0  0  0  0  0  0
    0.7704    4.1536    0.0000 C   0  0  0  0  0  0  0  0  0  0  0  0
    1.1757    3.2394    0.0000 O   0  0  0  0  0  0  0  0  0  0  0  0
    1.3595    4.9617    0.0000 N   0  0  0  0  0  0  0  0  0  0  0  0
   -4.5456   -1.7678    0.0000 C   0  0  0  0  0  0  0  0  0  0  0  0
   -5.5235   -1.9771    0.0000 C   0  0  0  0  0  0  0  0  0  0  0  0
   -5.8367   -2.9268    0.0000 C   0  0  0  0  0  0  0  0  0  0  0  0
   -5.1652   -3.6749    0.0000 C   0  0  0  0  0  0  0  0  0  0  0  0
   -5.4784   -4.6245    0.0000 F   0  0  0  0  0  0  0  0  0  0  0  0
   -4.1805   -3.4732    0.0000 C   0  0  0  0  0  0  0  0  0  0  0  0
   -3.8741   -2.5159    0.0000 C   0  0  0  0  0  0  0  0  0  0  0  0
  2  1  1  1
  2 10  1  0
  2 13  1  0
  2  3  1  0
  3  4  1  0
  4  8  2  0
  4  5  1  0
  5  6  2  0
  6  7  1  0
  7  8  1  0
  8  9  1  0
  9 10  2  0
 10 11  1  0
 11 12  1  0
 12 13  1  0
 13 14  1  1
 13 15  1  0
 15 16  1  0
 16 17  1  0
 17 23  1  0
 17 18  2  0
 18 19  1  0
 19 20  2  0
 20 21  1  0
 20 22  1  0
 22 23  2  0
 23 24  1  0
 24 25  2  0
 24 26  1  0
  7 27  1  0
 27 33  1  0
 27 28  2  0
 28 29  1  0
 29 30  2  0
 30 31  1  0
 30 32  1  0
 32 33  2  0
M  END
>  <SMILES>  (280) 
C[C@]12Cc3cnn(-c4ccc(F)cc4)c3C=C1CC[C@@]2(O)CCc1ccc(F)cc1C(N)=O

>  <CollectionName>  (280) 
chembl

>  <LOG PLASMA PROTEIN BINDING (RAT) (% unbound)>  (280) 
-0.337242168318

>  <Internal ID>  (280) 


>  <Source>  (280) 
AstraZeneca

$$$$
CHEMBL2152918
     RDKit          2D

 29 33  0  0  1  0  0  0  0  0999 V2000
   -8.5042    0.3524    0.0000 C   0  0  0  0  0  0  0  0  0  0  0  0
   -8.0030   -0.5129    0.0000 O   0  0  0  0  0  0  0  0  0  0  0  0
   -7.0030   -0.5114    0.0000 C   0  0  0  0  0  0  0  0  0  0  0  0
   -6.5017   -1.3767    0.0000 C   0  0  0  0  0  0  0  0  0  0  0  0
   -5.5017   -1.3753    0.0000 C   0  0  0  0  0  0  0  0  0  0  0  0
   -5.0030   -0.5085    0.0000 C   0  0  0  0  0  0  0  0  0  0  0  0
   -5.5042    0.3568    0.0000 C   0  0  0  0  0  0  0  0  0  0  0  0
   -6.5042    0.3553    0.0000 C   0  0  0  0  0  0  0  0  0  0  0  0
   -4.4140   -1.3167    0.0000 C   0  0  0  0  0  0  0  0  0  0  0  0
   -3.4634   -1.0063    0.0000 C   0  0  0  0  0  0  0  0  0  0  0  0
   -2.5966   -1.5050    0.0000 C   0  0  0  0  0  0  0  0  0  0  0  0
   -1.7313   -1.0038    0.0000 C   0  0  0  0  0  0  0  0  0  0  0  0
   -1.7328   -0.0038    0.0000 C   0  0  0  0  0  0  0  0  0  0  0  0
   -2.5995    0.4950    0.0000 C   0  0  0  0  0  0  0  0  0  0  0  0
   -3.4648   -0.0063    0.0000 C   0  0  0  0  0  0  0  0  0  0  0  0
   -4.4164    0.3014    0.0000 C   0  0  0  0  0  0  0  0  0  0  0  0
   -3.8297    1.1112    0.0000 N   0  0  0  0  0  0  0  0  0  0  0  0
   -4.4187    1.9194    0.0000 C   0  0  0  0  0  0  0  0  0  0  0  0
   -4.1111    2.8709    0.0000 C   0  0  0  0  0  0  0  0  0  0  0  0
   -5.3693    1.6090    0.0000 C   0  0  0  0  0  0  0  0  0  0  0  0
   -5.3679    0.6090    0.0000 N   0  0  0  0  0  0  0  0  0  0  0  0
   -6.1792    2.1956    0.0000 N   0  0  0  0  0  0  0  0  0  0  0  0
   -0.8675    0.4975    0.0000 C   0  0  0  0  0  0  0  0  0  0  0  0
   -0.8675    1.5027    0.0000 C   0  0  0  0  0  0  0  0  0  0  0  0
   -0.0000    2.0104    0.0000 N   0  0  0  0  0  0  0  0  0  0  0  0
    0.8675    1.5027    0.0000 C   0  0  0  0  0  0  0  0  0  0  0  0
    0.8675    0.4975    0.0000 C   0  0  0  0  0  0  0  0  0  0  0  0
    1.7328   -0.0038    0.0000 Br  0  0  0  0  0  0  0  0  0  0  0  0
    0.0000    0.0000    0.0000 C   0  0  0  0  0  0  0  0  0  0  0  0
  1  2  1  0
  3  2  1  1
  3  8  1  0
  3  4  1  0
  4  5  1  0
  6  5  1  6
  6 16  1  0
  6  7  1  0
  7  8  1  0
  6  9  1  0
  9 10  1  0
 10 15  2  0
 10 11  1  0
 11 12  2  0
 12 13  1  0
 13 14  2  0
 14 15  1  0
 15 16  1  0
 16 21  1  0
 16 17  1  0
 17 18  2  0
 18 19  1  0
 18 20  1  0
 20 21  2  0
 20 22  1  0
 13 23  1  0
 23 29  1  0
 23 24  2  0
 24 25  1  0
 25 26  2  0
 26 27  1  0
 27 28  1  0
 27 29  2  0
M  END
>  <SMILES>  (281) 
CO[C@H]1CC[C@]2(CC1)Cc1ccc(-c3cncc(Br)c3)cc1C21N=C(C)C(N)=N1

>  <CollectionName>  (281) 
chembl

>  <LOG PLASMA PROTEIN BINDING (RAT) (% unbound)>  (281) 
0.820201459486

>  <Internal ID>  (281) 


>  <Source>  (281) 
AstraZeneca

$$$$
CHEMBL2158441
     RDKit          2D

 23 25  0  0  0  0  0  0  0  0999 V2000
    4.3449    1.5001    0.0000 Cl  0  0  0  0  0  0  0  0  0  0  0  0
    4.3449    2.5001    0.0000 C   0  0  0  0  0  0  0  0  0  0  0  0
    5.2169    3.0001    0.0000 C   0  0  0  0  0  0  0  0  0  0  0  0
    5.2170    4.0001    0.0000 C   0  0  0  0  0  0  0  0  0  0  0  0
    4.3538    4.5052    0.0000 C   0  0  0  0  0  0  0  0  0  0  0  0
    3.4818    4.0052    0.0000 C   0  0  0  0  0  0  0  0  0  0  0  0
    2.6188    4.5103    0.0000 Cl  0  0  0  0  0  0  0  0  0  0  0  0
    3.4729    3.0001    0.0000 C   0  0  0  0  0  0  0  0  0  0  0  0
    2.6054    2.5026    0.0000 C   0  0  0  0  0  0  0  0  0  0  0  0
    2.6025    1.5026    0.0000 N   0  0  0  0  0  0  0  0  0  0  0  0
    1.7350    1.0052    0.0000 C   0  0  0  0  0  0  0  0  0  0  0  0
    1.7350    0.0000    0.0000 N   0  0  0  0  0  0  0  0  0  0  0  0
    0.8675   -0.4975    0.0000 C   0  0  0  0  0  0  0  0  0  0  0  0
    0.0000    0.0000    0.0000 C   0  0  0  0  0  0  0  0  0  0  0  0
    0.0000    1.0052    0.0000 C   0  0  0  0  0  0  0  0  0  0  0  0
   -0.8675    1.5026    0.0000 O   0  0  0  0  0  0  0  0  0  0  0  0
    0.8675    1.5129    0.0000 N   0  0  0  0  0  0  0  0  0  0  0  0
    0.8675   -1.4975    0.0000 N   0  0  0  0  0  0  0  0  0  0  0  0
    1.7350   -1.9950    0.0000 C   0  0  0  0  0  0  0  0  0  0  0  0
    1.7350   -3.0002    0.0000 C   0  0  0  0  0  0  0  0  0  0  0  0
    0.8675   -3.5079    0.0000 O   0  0  0  0  0  0  0  0  0  0  0  0
    0.0000   -3.0002    0.0000 C   0  0  0  0  0  0  0  0  0  0  0  0
    0.0000   -1.9950    0.0000 C   0  0  0  0  0  0  0  0  0  0  0  0
  1  2  1  0
  2  8  2  0
  2  3  1  0
  3  4  2  0
  4  5  1  0
  5  6  2  0
  6  7  1  0
  6  8  1  0
  8  9  1  0
  9 10  1  0
 10 11  1  0
 11 17  1  0
 11 12  2  0
 12 13  1  0
 13 14  2  0
 14 15  1  0
 15 16  2  0
 15 17  1  0
 13 18  1  0
 18 23  1  0
 18 19  1  0
 19 20  1  0
 20 21  1  0
 21 22  1  0
 22 23  1  0
M  END
>  <SMILES>  (282) 
O=c1cc(N2CCOCC2)nc(NCc2c(Cl)cccc2Cl)[nH]1

>  <CollectionName>  (282) 
chembl

>  <LOG PLASMA PROTEIN BINDING (RAT) (% unbound)>  (282) 
0.621176281775

>  <Internal ID>  (282) 


>  <Source>  (282) 
AstraZeneca

$$$$
CHEMBL2158792
     RDKit          2D

 35 38  0  0  1  0  0  0  0  0999 V2000
    5.1992   -6.0154    0.0000 C   0  0  0  0  0  0  0  0  0  0  0  0
    4.3362   -5.5103    0.0000 C   0  0  0  0  0  0  0  0  0  0  0  0
    4.3451   -4.5052    0.0000 C   0  0  0  0  0  0  0  0  0  0  0  0
    3.4731   -4.0052    0.0000 C   0  0  0  0  0  0  0  0  0  0  0  0
    3.4731   -3.0052    0.0000 O   0  0  0  0  0  0  0  0  0  0  0  0
    2.6071   -2.5052    0.0000 C   0  0  0  0  0  0  0  0  0  0  0  0
    1.7425   -3.0077    0.0000 C   0  0  0  0  0  0  0  0  0  0  0  0
    0.8720   -2.5051    0.0000 C   0  0  0  0  0  0  0  0  0  0  0  0
    0.8660   -1.5000    0.0000 N   0  0  0  0  0  0  0  0  0  0  0  0
    0.0000   -1.0000    0.0000 C   0  0  0  0  0  0  0  0  0  0  0  0
    0.0000    0.0000    0.0000 C   0  0  0  0  0  0  0  0  0  0  0  0
   -0.8675    0.4975    0.0000 C   0  0  0  0  0  0  0  0  0  0  0  0
   -0.8675    1.5027    0.0000 C   0  0  0  0  0  0  0  0  0  0  0  0
   -0.0000    2.0104    0.0000 N   0  0  0  0  0  0  0  0  0  0  0  0
    0.8675    1.5027    0.0000 C   0  0  0  0  0  0  0  0  0  0  0  0
    0.8675    0.4975    0.0000 C   0  0  0  0  0  0  0  0  0  0  0  0
   -0.0000    3.7604    0.0000 C   0  0  0  0  0  0  0  0  0  0  0  0
   -0.0000    4.7604    0.0000 C   0  0  0  0  0  0  0  0  0  0  0  0
    1.0000    3.7604    0.0000 C   0  0  0  0  0  0  0  0  0  0  0  0
    1.5000    4.6264    0.0000 C   0  0  0  0  0  0  0  0  0  0  0  0
    1.0012    5.4932    0.0000 C   0  0  0  0  0  0  0  0  0  0  0  0
    1.4975    6.3614    0.0000 C   0  0  0  0  0  0  0  0  0  0  0  0
    2.5027    6.3629    0.0000 C   0  0  0  0  0  0  0  0  0  0  0  0
    2.9989    7.2311    0.0000 F   0  0  0  0  0  0  0  0  0  0  0  0
    3.0116    5.4961    0.0000 C   0  0  0  0  0  0  0  0  0  0  0  0
    2.5052    4.6279    0.0000 C   0  0  0  0  0  0  0  0  0  0  0  0
   -1.0000    3.7604    0.0000 C   0  0  0  0  0  0  0  0  0  0  0  0
   -1.5000    4.6264    0.0000 O   0  0  0  0  0  0  0  0  0  0  0  0
   -1.5000    2.8944    0.0000 O   0  0  0  0  0  0  0  0  0  0  0  0
    1.7395   -1.0026    0.0000 C   0  0  0  0  0  0  0  0  0  0  0  0
    2.6100   -1.5052    0.0000 C   0  0  0  0  0  0  0  0  0  0  0  0
    2.6011   -4.5052    0.0000 C   0  0  0  0  0  0  0  0  0  0  0  0
    2.6011   -5.5053    0.0000 C   0  0  0  0  0  0  0  0  0  0  0  0
    3.4642   -6.0103    0.0000 C   0  0  0  0  0  0  0  0  0  0  0  0
    3.4598   -7.0103    0.0000 Cl  0  0  0  0  0  0  0  0  0  0  0  0
  1  2  1  0
  2 34  2  0
  2  3  1  0
  3  4  2  0
  4  5  1  0
  5  6  1  0
  6 31  1  0
  6  7  1  0
  7  8  1  0
  8  9  1  0
  9 10  1  0
 10 11  1  0
 11 16  1  0
 11 12  1  0
 12 13  1  0
 13 14  1  0
 14 15  1  0
 15 16  1  0
 14 17  1  0
 17 18  1  1
 17 19  1  0
 19 20  1  0
 20 26  1  0
 20 21  2  0
 21 22  1  0
 22 23  2  0
 23 24  1  0
 23 25  1  0
 25 26  2  0
 17 27  1  0
 27 28  2  0
 27 29  1  0
  9 30  1  0
 30 31  1  0
  4 32  1  0
 32 33  2  0
 33 34  1  0
 34 35  1  0
M  END
>  <SMILES>  (283) 
Cc1cc(OC2CCN(CC3CCN([C@@](C)(Cc4ccc(F)cc4)C(=O)O)CC3)CC2)ccc1Cl

>  <CollectionName>  (283) 
chembl

>  <LOG PLASMA PROTEIN BINDING (RAT) (% unbound)>  (283) 
1.4255342205

>  <Internal ID>  (283) 


>  <Source>  (283) 
AstraZeneca

$$$$
CHEMBL2158793
     RDKit          2D

 35 38  0  0  1  0  0  0  0  0999 V2000
    1.7380   -4.0078    0.0000 C   0  0  0  0  0  0  0  0  0  0  0  0
    2.6033   -4.5091    0.0000 C   0  0  0  0  0  0  0  0  0  0  0  0
    2.5988   -5.5142    0.0000 C   0  0  0  0  0  0  0  0  0  0  0  0
    3.4730   -6.0104    0.0000 C   0  0  0  0  0  0  0  0  0  0  0  0
    3.4774   -7.0103    0.0000 F   0  0  0  0  0  0  0  0  0  0  0  0
    4.3428   -5.5065    0.0000 C   0  0  0  0  0  0  0  0  0  0  0  0
    4.3384   -4.5065    0.0000 C   0  0  0  0  0  0  0  0  0  0  0  0
    3.4731   -4.0052    0.0000 C   0  0  0  0  0  0  0  0  0  0  0  0
    3.4731   -3.0052    0.0000 O   0  0  0  0  0  0  0  0  0  0  0  0
    2.6071   -2.5052    0.0000 C   0  0  0  0  0  0  0  0  0  0  0  0
    1.7425   -3.0077    0.0000 C   0  0  0  0  0  0  0  0  0  0  0  0
    0.8720   -2.5051    0.0000 C   0  0  0  0  0  0  0  0  0  0  0  0
    0.8660   -1.5000    0.0000 N   0  0  0  0  0  0  0  0  0  0  0  0
    0.0000   -1.0000    0.0000 C   0  0  0  0  0  0  0  0  0  0  0  0
    0.0000    0.0000    0.0000 C   0  0  0  0  0  0  0  0  0  0  0  0
   -0.8675    0.4975    0.0000 C   0  0  0  0  0  0  0  0  0  0  0  0
   -0.8675    1.5027    0.0000 C   0  0  0  0  0  0  0  0  0  0  0  0
   -0.0000    2.0104    0.0000 N   0  0  0  0  0  0  0  0  0  0  0  0
    0.8675    1.5027    0.0000 C   0  0  0  0  0  0  0  0  0  0  0  0
    0.8675    0.4975    0.0000 C   0  0  0  0  0  0  0  0  0  0  0  0
   -0.0000    3.7604    0.0000 C   0  0  0  0  0  0  0  0  0  0  0  0
   -0.0000    4.7604    0.0000 C   0  0  0  0  0  0  0  0  0  0  0  0
    1.0000    3.7604    0.0000 C   0  0  0  0  0  0  0  0  0  0  0  0
    1.5000    4.6264    0.0000 C   0  0  0  0  0  0  0  0  0  0  0  0
    1.0012    5.4932    0.0000 C   0  0  0  0  0  0  0  0  0  0  0  0
    1.4975    6.3614    0.0000 C   0  0  0  0  0  0  0  0  0  0  0  0
    2.5027    6.3629    0.0000 C   0  0  0  0  0  0  0  0  0  0  0  0
    2.9989    7.2311    0.0000 F   0  0  0  0  0  0  0  0  0  0  0  0
    3.0116    5.4961    0.0000 C   0  0  0  0  0  0  0  0  0  0  0  0
    2.5052    4.6279    0.0000 C   0  0  0  0  0  0  0  0  0  0  0  0
   -1.0000    3.7604    0.0000 C   0  0  0  0  0  0  0  0  0  0  0  0
   -1.5000    4.6264    0.0000 O   0  0  0  0  0  0  0  0  0  0  0  0
   -1.5000    2.8944    0.0000 O   0  0  0  0  0  0  0  0  0  0  0  0
    1.7395   -1.0026    0.0000 C   0  0  0  0  0  0  0  0  0  0  0  0
    2.6100   -1.5052    0.0000 C   0  0  0  0  0  0  0  0  0  0  0  0
  1  2  1  0
  2  8  2  0
  2  3  1  0
  3  4  2  0
  4  5  1  0
  4  6  1  0
  6  7  2  0
  7  8  1  0
  8  9  1  0
  9 10  1  0
 10 35  1  0
 10 11  1  0
 11 12  1  0
 12 13  1  0
 13 14  1  0
 14 15  1  0
 15 20  1  0
 15 16  1  0
 16 17  1  0
 17 18  1  0
 18 19  1  0
 19 20  1  0
 18 21  1  0
 21 22  1  1
 21 23  1  0
 23 24  1  0
 24 30  1  0
 24 25  2  0
 25 26  1  0
 26 27  2  0
 27 28  1  0
 27 29  1  0
 29 30  2  0
 21 31  1  0
 31 32  2  0
 31 33  1  0
 13 34  1  0
 34 35  1  0
M  END
>  <SMILES>  (284) 
Cc1cc(F)ccc1OC1CCN(CC2CCN([C@@](C)(Cc3ccc(F)cc3)C(=O)O)CC2)CC1

>  <CollectionName>  (284) 
chembl

>  <LOG PLASMA PROTEIN BINDING (RAT) (% unbound)>  (284) 
1.65166560392

>  <Internal ID>  (284) 


>  <Source>  (284) 
AstraZeneca

$$$$
CHEMBL2158841
     RDKit          2D

 34 37  0  0  1  0  0  0  0  0999 V2000
    0.8660    4.5104    0.0000 O   0  0  0  0  0  0  0  0  0  0  0  0
    0.8660    3.5104    0.0000 C   0  0  0  0  0  0  0  0  0  0  0  0
    1.7321    3.0104    0.0000 O   0  0  0  0  0  0  0  0  0  0  0  0
   -0.0000    3.0104    0.0000 C   0  0  0  0  0  0  0  0  0  0  0  0
   -0.8660    3.5104    0.0000 C   0  0  0  0  0  0  0  0  0  0  0  0
   -0.8660    4.5104    0.0000 C   0  0  0  0  0  0  0  0  0  0  0  0
   -0.0007    5.0117    0.0000 C   0  0  0  0  0  0  0  0  0  0  0  0
    0.0037    6.0117    0.0000 C   0  0  0  0  0  0  0  0  0  0  0  0
   -0.8661    6.5156    0.0000 C   0  0  0  0  0  0  0  0  0  0  0  0
   -0.8617    7.5155    0.0000 F   0  0  0  0  0  0  0  0  0  0  0  0
   -1.7403    6.0194    0.0000 C   0  0  0  0  0  0  0  0  0  0  0  0
   -1.7358    5.0143    0.0000 C   0  0  0  0  0  0  0  0  0  0  0  0
   -0.0000    2.0104    0.0000 N   0  0  0  0  0  0  0  0  0  0  0  0
   -0.8675    1.5027    0.0000 C   0  0  0  0  0  0  0  0  0  0  0  0
   -0.8675    0.4975    0.0000 C   0  0  0  0  0  0  0  0  0  0  0  0
    0.0000    0.0000    0.0000 C   0  0  0  0  0  0  0  0  0  0  0  0
    0.0000   -1.0000    0.0000 C   0  0  0  0  0  0  0  0  0  0  0  0
    0.8660   -1.5000    0.0000 N   0  0  0  0  0  0  0  0  0  0  0  0
    0.8720   -2.5051    0.0000 C   0  0  0  0  0  0  0  0  0  0  0  0
    1.7425   -3.0077    0.0000 C   0  0  0  0  0  0  0  0  0  0  0  0
    2.6071   -2.5052    0.0000 C   0  0  0  0  0  0  0  0  0  0  0  0
    2.6100   -1.5052    0.0000 C   0  0  0  0  0  0  0  0  0  0  0  0
    1.7395   -1.0026    0.0000 C   0  0  0  0  0  0  0  0  0  0  0  0
    3.4731   -3.0052    0.0000 O   0  0  0  0  0  0  0  0  0  0  0  0
    3.4731   -4.0052    0.0000 C   0  0  0  0  0  0  0  0  0  0  0  0
    2.6011   -4.5052    0.0000 C   0  0  0  0  0  0  0  0  0  0  0  0
    2.6011   -5.5053    0.0000 C   0  0  0  0  0  0  0  0  0  0  0  0
    3.4642   -6.0103    0.0000 C   0  0  0  0  0  0  0  0  0  0  0  0
    3.4598   -7.0103    0.0000 Cl  0  0  0  0  0  0  0  0  0  0  0  0
    4.3362   -5.5103    0.0000 C   0  0  0  0  0  0  0  0  0  0  0  0
    5.1992   -6.0154    0.0000 Cl  0  0  0  0  0  0  0  0  0  0  0  0
    4.3451   -4.5052    0.0000 C   0  0  0  0  0  0  0  0  0  0  0  0
    0.8675    0.4975    0.0000 C   0  0  0  0  0  0  0  0  0  0  0  0
    0.8675    1.5027    0.0000 C   0  0  0  0  0  0  0  0  0  0  0  0
  1  2  1  0
  2  3  2  0
  4  2  1  0
  4  5  1  1
  5  6  1  0
  6 12  1  0
  6  7  2  0
  7  8  1  0
  8  9  2  0
  9 10  1  0
  9 11  1  0
 11 12  2  0
  4 13  1  0
 13 34  1  0
 13 14  1  0
 14 15  1  0
 15 16  1  0
 16 17  1  0
 17 18  1  0
 18 23  1  0
 18 19  1  0
 19 20  1  0
 20 21  1  0
 21 22  1  0
 22 23  1  0
 21 24  1  0
 24 25  1  0
 25 32  1  0
 25 26  2  0
 26 27  1  0
 27 28  2  0
 28 29  1  0
 28 30  1  0
 30 31  1  0
 30 32  2  0
 16 33  1  0
 33 34  1  0
M  END
>  <SMILES>  (285) 
O=C(O)[C@H](Cc1ccc(F)cc1)N1CCC(CN2CCC(Oc3ccc(Cl)c(Cl)c3)CC2)CC1

>  <CollectionName>  (285) 
chembl

>  <LOG PLASMA PROTEIN BINDING (RAT) (% unbound)>  (285) 
1.34222522936

>  <Internal ID>  (285) 


>  <Source>  (285) 
AstraZeneca

$$$$
CHEMBL2164044
     RDKit          2D

 34 37  0  0  1  0  0  0  0  0999 V2000
    8.7910   -1.3560    0.0000 F   0  0  0  0  0  0  0  0  0  0  0  0
    7.7910   -1.3604    0.0000 C   0  0  0  0  0  0  0  0  0  0  0  0
    7.2910   -2.2325    0.0000 C   0  0  0  0  0  0  0  0  0  0  0  0
    6.2859   -2.2414    0.0000 N   0  0  0  0  0  0  0  0  0  0  0  0
    5.7859   -1.3695    0.0000 C   0  0  0  0  0  0  0  0  0  0  0  0
    4.7859   -1.3695    0.0000 C   0  0  0  0  0  0  0  0  0  0  0  0
    4.2858   -0.5035    0.0000 C   0  0  0  0  0  0  0  0  0  0  0  0
    3.2858   -0.5036    0.0000 N   0  0  0  0  0  0  0  0  0  0  0  0
    2.6938    0.3110    0.0000 C   0  0  0  0  0  0  0  0  0  0  0  0
    3.0029    1.2620    0.0000 C   0  0  0  0  0  0  0  0  0  0  0  0
    2.3337    2.0052    0.0000 O   0  0  0  0  0  0  0  0  0  0  0  0
    3.9810    1.4699    0.0000 N   0  0  0  0  0  0  0  0  0  0  0  0
    4.2901    2.4210    0.0000 C   0  0  0  0  0  0  0  0  0  0  0  0
    5.2682    2.6288    0.0000 C   0  0  0  0  0  0  0  0  0  0  0  0
    5.9386    1.8798    0.0000 C   0  0  0  0  0  0  0  0  0  0  0  0
    6.9168    2.0877    0.0000 C   0  0  0  0  0  0  0  0  0  0  0  0
    7.2314    3.0369    0.0000 C   0  0  0  0  0  0  0  0  0  0  0  0
    8.2105    3.2405    0.0000 F   0  0  0  0  0  0  0  0  0  0  0  0
    6.5610    3.7859    0.0000 C   0  0  0  0  0  0  0  0  0  0  0  0
    5.5760    3.5857    0.0000 C   0  0  0  0  0  0  0  0  0  0  0  0
    6.8757    4.7351    0.0000 C   0  0  0  0  0  0  0  0  0  0  0  0
    5.9265    5.0498    0.0000 F   0  0  0  0  0  0  0  0  0  0  0  0
    7.8249    4.4205    0.0000 F   0  0  0  0  0  0  0  0  0  0  0  0
    7.1903    5.6843    0.0000 F   0  0  0  0  0  0  0  0  0  0  0  0
    1.7360   -0.0000    0.0000 C   0  0  0  0  0  0  0  0  0  0  0  0
    0.8680    0.5079    0.0000 C   0  0  0  0  0  0  0  0  0  0  0  0
    0.0000    0.0000    0.0000 C   0  0  0  0  0  0  0  0  0  0  0  0
    0.0000   -1.0058    0.0000 C   0  0  0  0  0  0  0  0  0  0  0  0
    0.8680   -1.5037    0.0000 C   0  0  0  0  0  0  0  0  0  0  0  0
    1.7360   -1.0071    0.0000 C   0  0  0  0  0  0  0  0  0  0  0  0
    2.6938   -1.3184    0.0000 C   0  0  0  0  0  0  0  0  0  0  0  0
    3.0028   -2.2695    0.0000 O   0  0  0  0  0  0  0  0  0  0  0  0
    6.2858   -0.4974    0.0000 N   0  0  0  0  0  0  0  0  0  0  0  0
    7.2859   -0.4973    0.0000 C   0  0  0  0  0  0  0  0  0  0  0  0
  1  2  1  0
  2 34  2  0
  2  3  1  0
  3  4  2  0
  4  5  1  0
  5  6  1  0
  6  7  1  0
  7  8  1  0
  8 31  1  0
  8  9  1  0
  9 10  1  0
 10 11  2  0
 10 12  1  0
 12 13  1  0
 13 14  1  0
 14 20  1  0
 14 15  2  0
 15 16  1  0
 16 17  2  0
 17 18  1  0
 17 19  1  0
 19 20  2  0
 19 21  1  0
 21 22  1  0
 21 23  1  0
 21 24  1  0
  9 25  1  0
 25 30  1  0
 25 26  2  0
 26 27  1  0
 27 28  2  0
 28 29  1  0
 29 30  2  0
 30 31  1  0
 31 32  2  0
  5 33  2  0
 33 34  1  0
M  END
>  <SMILES>  (286) 
O=C(NCc1ccc(F)c(C(F)(F)F)c1)C1c2ccccc2C(=O)N1CCc1ncc(F)cn1

>  <CollectionName>  (286) 
chembl

>  <LOG PLASMA PROTEIN BINDING (RAT) (% unbound)>  (286) 
1.11025291735

>  <Internal ID>  (286) 


>  <Source>  (286) 
AstraZeneca

$$$$
CHEMBL2164045
     RDKit          2D

 35 38  0  0  1  0  0  0  0  0999 V2000
    0.8680    2.5137    0.0000 O   0  0  0  0  0  0  0  0  0  0  0  0
    0.8680    1.5137    0.0000 C   0  0  0  0  0  0  0  0  0  0  0  0
    0.0000    1.0058    0.0000 C   0  0  0  0  0  0  0  0  0  0  0  0
    0.0000    0.0000    0.0000 C   0  0  0  0  0  0  0  0  0  0  0  0
    0.8680   -0.4979    0.0000 C   0  0  0  0  0  0  0  0  0  0  0  0
    1.7360   -0.0013    0.0000 C   0  0  0  0  0  0  0  0  0  0  0  0
    2.6938   -0.3126    0.0000 C   0  0  0  0  0  0  0  0  0  0  0  0
    3.2858    0.5022    0.0000 N   0  0  0  0  0  0  0  0  0  0  0  0
    4.2858    0.5023    0.0000 C   0  0  0  0  0  0  0  0  0  0  0  0
    4.7859   -0.3637    0.0000 C   0  0  0  0  0  0  0  0  0  0  0  0
    5.7859   -0.3637    0.0000 C   0  0  0  0  0  0  0  0  0  0  0  0
    6.2859   -1.2356    0.0000 N   0  0  0  0  0  0  0  0  0  0  0  0
    7.2910   -1.2267    0.0000 C   0  0  0  0  0  0  0  0  0  0  0  0
    7.7910   -0.3546    0.0000 C   0  0  0  0  0  0  0  0  0  0  0  0
    8.7910   -0.3502    0.0000 F   0  0  0  0  0  0  0  0  0  0  0  0
    7.2859    0.5085    0.0000 C   0  0  0  0  0  0  0  0  0  0  0  0
    6.2858    0.5084    0.0000 N   0  0  0  0  0  0  0  0  0  0  0  0
    2.6938    1.3168    0.0000 C   0  0  0  0  0  0  0  0  0  0  0  0
    3.0028    2.2678    0.0000 O   0  0  0  0  0  0  0  0  0  0  0  0
    1.7360    1.0058    0.0000 C   0  0  0  0  0  0  0  0  0  0  0  0
    3.0028   -1.2637    0.0000 C   0  0  0  0  0  0  0  0  0  0  0  0
    3.9809   -1.4716    0.0000 O   0  0  0  0  0  0  0  0  0  0  0  0
    2.3336   -2.0068    0.0000 N   0  0  0  0  0  0  0  0  0  0  0  0
    2.6426   -2.9579    0.0000 C   0  0  0  0  0  0  0  0  0  0  0  0
    1.9734   -3.7010    0.0000 C   0  0  0  0  0  0  0  0  0  0  0  0
    0.9949   -3.4944    0.0000 C   0  0  0  0  0  0  0  0  0  0  0  0
    0.3225   -4.2346    0.0000 C   0  0  0  0  0  0  0  0  0  0  0  0
    0.6317   -5.1911    0.0000 C   0  0  0  0  0  0  0  0  0  0  0  0
   -0.0407   -5.9313    0.0000 O   0  0  0  0  0  0  0  0  0  0  0  0
    0.2641   -6.8837    0.0000 C   0  0  0  0  0  0  0  0  0  0  0  0
    1.2165   -6.5789    0.0000 F   0  0  0  0  0  0  0  0  0  0  0  0
   -0.6884   -7.1885    0.0000 F   0  0  0  0  0  0  0  0  0  0  0  0
    0.5688   -7.8361    0.0000 F   0  0  0  0  0  0  0  0  0  0  0  0
    1.6133   -5.4074    0.0000 C   0  0  0  0  0  0  0  0  0  0  0  0
    2.2826   -4.6574    0.0000 C   0  0  0  0  0  0  0  0  0  0  0  0
  1  2  1  0
  2 20  2  0
  2  3  1  0
  3  4  2  0
  4  5  1  0
  5  6  2  0
  6 20  1  0
  6  7  1  0
  7  8  1  0
  8  9  1  0
  9 10  1  0
 10 11  1  0
 11 17  1  0
 11 12  2  0
 12 13  1  0
 13 14  2  0
 14 15  1  0
 14 16  1  0
 16 17  2  0
  8 18  1  0
 18 19  2  0
 18 20  1  0
  7 21  1  0
 21 22  2  0
 21 23  1  0
 23 24  1  0
 24 25  1  0
 25 35  1  0
 25 26  2  0
 26 27  1  0
 27 28  2  0
 28 29  1  0
 29 30  1  0
 30 31  1  0
 30 32  1  0
 30 33  1  0
 28 34  1  0
 34 35  2  0
M  END
>  <SMILES>  (287) 
O=C(NCc1ccc(OC(F)(F)F)cc1)C1c2cccc(O)c2C(=O)N1CCc1ncc(F)cn1

>  <CollectionName>  (287) 
chembl

>  <LOG PLASMA PROTEIN BINDING (RAT) (% unbound)>  (287) 
0.621176281775

>  <Internal ID>  (287) 


>  <Source>  (287) 
AstraZeneca

$$$$
CHEMBL2164371
     RDKit          2D

 31 34  0  0  1  0  0  0  0  0999 V2000
    7.5722    4.5123    0.0000 F   0  0  0  0  0  0  0  0  0  0  0  0
    8.5218    4.1990    0.0000 C   0  0  0  0  0  0  0  0  0  0  0  0
    9.4715    3.8858    0.0000 F   0  0  0  0  0  0  0  0  0  0  0  0
    8.8351    5.1487    0.0000 F   0  0  0  0  0  0  0  0  0  0  0  0
    8.2086    3.2494    0.0000 O   0  0  0  0  0  0  0  0  0  0  0  0
    7.2295    3.0458    0.0000 C   0  0  0  0  0  0  0  0  0  0  0  0
    6.9175    2.0903    0.0000 C   0  0  0  0  0  0  0  0  0  0  0  0
    5.9384    1.8866    0.0000 C   0  0  0  0  0  0  0  0  0  0  0  0
    5.2682    2.6288    0.0000 C   0  0  0  0  0  0  0  0  0  0  0  0
    4.2901    2.4210    0.0000 C   0  0  0  0  0  0  0  0  0  0  0  0
    3.9810    1.4699    0.0000 N   0  0  0  0  0  0  0  0  0  0  0  0
    3.0029    1.2620    0.0000 C   0  0  0  0  0  0  0  0  0  0  0  0
    2.3337    2.0052    0.0000 O   0  0  0  0  0  0  0  0  0  0  0  0
    2.6938    0.3110    0.0000 C   0  0  0  0  0  0  0  0  0  0  0  0
    3.2858   -0.5036    0.0000 N   0  0  0  0  0  0  0  0  0  0  0  0
    4.2858   -0.5035    0.0000 C   0  0  0  0  0  0  0  0  0  0  0  0
    4.7832    0.3640    0.0000 C   0  0  0  0  0  0  0  0  0  0  0  0
    5.7884    0.3640    0.0000 C   0  0  0  0  0  0  0  0  0  0  0  0
    6.2962   -0.5034    0.0000 O   0  0  0  0  0  0  0  0  0  0  0  0
    5.7886   -1.3710    0.0000 C   0  0  0  0  0  0  0  0  0  0  0  0
    4.7834   -1.3710    0.0000 C   0  0  0  0  0  0  0  0  0  0  0  0
    2.6938   -1.3184    0.0000 C   0  0  0  0  0  0  0  0  0  0  0  0
    3.0028   -2.2695    0.0000 O   0  0  0  0  0  0  0  0  0  0  0  0
    1.7360   -1.0071    0.0000 C   0  0  0  0  0  0  0  0  0  0  0  0
    0.8680   -1.5037    0.0000 C   0  0  0  0  0  0  0  0  0  0  0  0
    0.0000   -1.0058    0.0000 C   0  0  0  0  0  0  0  0  0  0  0  0
    0.0000    0.0000    0.0000 C   0  0  0  0  0  0  0  0  0  0  0  0
    0.8680    0.5079    0.0000 C   0  0  0  0  0  0  0  0  0  0  0  0
    1.7360   -0.0000    0.0000 C   0  0  0  0  0  0  0  0  0  0  0  0
    5.5803    3.5844    0.0000 C   0  0  0  0  0  0  0  0  0  0  0  0
    6.5625    3.7977    0.0000 C   0  0  0  0  0  0  0  0  0  0  0  0
  1  2  1  0
  2  3  1  0
  2  4  1  0
  2  5  1  0
  5  6  1  0
  6 31  2  0
  6  7  1  0
  7  8  2  0
  8  9  1  0
  9 10  1  0
 10 11  1  0
 11 12  1  0
 12 13  2  0
 12 14  1  0
 14 29  1  0
 14 15  1  0
 15 16  1  0
 16 21  1  0
 16 17  1  0
 17 18  1  0
 18 19  1  0
 19 20  1  0
 20 21  1  0
 15 22  1  0
 22 23  2  0
 22 24  1  0
 24 29  2  0
 24 25  1  0
 25 26  2  0
 26 27  1  0
 27 28  2  0
 28 29  1  0
  9 30  2  0
 30 31  1  0
M  END
>  <SMILES>  (288) 
O=C(NCc1ccc(OC(F)(F)F)cc1)C1c2ccccc2C(=O)N1C1CCOCC1

>  <CollectionName>  (288) 
chembl

>  <LOG PLASMA PROTEIN BINDING (RAT) (% unbound)>  (288) 
1.11892575283

>  <Internal ID>  (288) 


>  <Source>  (288) 
AstraZeneca

$$$$
CHEMBL2164389
     RDKit          2D

 33 36  0  0  1  0  0  0  0  0999 V2000
    7.5722    4.5123    0.0000 F   0  0  0  0  0  0  0  0  0  0  0  0
    8.5218    4.1990    0.0000 C   0  0  0  0  0  0  0  0  0  0  0  0
    9.4715    3.8858    0.0000 F   0  0  0  0  0  0  0  0  0  0  0  0
    8.8351    5.1487    0.0000 F   0  0  0  0  0  0  0  0  0  0  0  0
    8.2086    3.2494    0.0000 O   0  0  0  0  0  0  0  0  0  0  0  0
    7.2295    3.0458    0.0000 C   0  0  0  0  0  0  0  0  0  0  0  0
    6.9175    2.0903    0.0000 C   0  0  0  0  0  0  0  0  0  0  0  0
    5.9384    1.8866    0.0000 C   0  0  0  0  0  0  0  0  0  0  0  0
    5.2682    2.6288    0.0000 C   0  0  0  0  0  0  0  0  0  0  0  0
    4.2901    2.4210    0.0000 C   0  0  0  0  0  0  0  0  0  0  0  0
    3.9810    1.4699    0.0000 N   0  0  0  0  0  0  0  0  0  0  0  0
    3.0029    1.2620    0.0000 C   0  0  0  0  0  0  0  0  0  0  0  0
    2.3337    2.0052    0.0000 O   0  0  0  0  0  0  0  0  0  0  0  0
    2.6938    0.3110    0.0000 C   0  0  0  0  0  0  0  0  0  0  0  0
    3.2858   -0.5036    0.0000 N   0  0  0  0  0  0  0  0  0  0  0  0
    4.2858   -0.5035    0.0000 C   0  0  0  0  0  0  0  0  0  0  0  0
    4.7859   -1.3695    0.0000 C   0  0  0  0  0  0  0  0  0  0  0  0
    5.7859   -1.3695    0.0000 C   0  0  0  0  0  0  0  0  0  0  0  0
    6.2858   -0.4974    0.0000 C   0  0  0  0  0  0  0  0  0  0  0  0
    7.2859   -0.4973    0.0000 C   0  0  0  0  0  0  0  0  0  0  0  0
    7.7910   -1.3604    0.0000 C   0  0  0  0  0  0  0  0  0  0  0  0
    7.2910   -2.2325    0.0000 C   0  0  0  0  0  0  0  0  0  0  0  0
    6.2859   -2.2414    0.0000 N   0  0  0  0  0  0  0  0  0  0  0  0
    2.6938   -1.3184    0.0000 C   0  0  0  0  0  0  0  0  0  0  0  0
    3.0028   -2.2695    0.0000 O   0  0  0  0  0  0  0  0  0  0  0  0
    1.7360   -1.0071    0.0000 C   0  0  0  0  0  0  0  0  0  0  0  0
    0.8680   -1.5037    0.0000 C   0  0  0  0  0  0  0  0  0  0  0  0
    0.0000   -1.0058    0.0000 C   0  0  0  0  0  0  0  0  0  0  0  0
    0.0000    0.0000    0.0000 C   0  0  0  0  0  0  0  0  0  0  0  0
    0.8680    0.5079    0.0000 C   0  0  0  0  0  0  0  0  0  0  0  0
    1.7360   -0.0000    0.0000 C   0  0  0  0  0  0  0  0  0  0  0  0
    5.5803    3.5844    0.0000 C   0  0  0  0  0  0  0  0  0  0  0  0
    6.5625    3.7977    0.0000 C   0  0  0  0  0  0  0  0  0  0  0  0
  1  2  1  0
  2  3  1  0
  2  4  1  0
  2  5  1  0
  5  6  1  0
  6 33  2  0
  6  7  1  0
  7  8  2  0
  8  9  1  0
  9 10  1  0
 10 11  1  0
 11 12  1  0
 12 13  2  0
 12 14  1  0
 14 31  1  0
 14 15  1  0
 15 16  1  0
 16 17  1  0
 17 18  1  0
 18 23  1  0
 18 19  2  0
 19 20  1  0
 20 21  2  0
 21 22  1  0
 22 23  2  0
 15 24  1  0
 24 25  2  0
 24 26  1  0
 26 31  2  0
 26 27  1  0
 27 28  2  0
 28 29  1  0
 29 30  2  0
 30 31  1  0
  9 32  2  0
 32 33  1  0
M  END
>  <SMILES>  (289) 
O=C(NCc1ccc(OC(F)(F)F)cc1)C1c2ccccc2C(=O)N1CCc1ccccn1

>  <CollectionName>  (289) 
chembl

>  <LOG PLASMA PROTEIN BINDING (RAT) (% unbound)>  (289) 
0.650307523132

>  <Internal ID>  (289) 


>  <Source>  (289) 
AstraZeneca

$$$$
CHEMBL2164564
     RDKit          2D

 26 29  0  0  1  0  0  0  0  0999 V2000
    4.9147    5.3281    0.0000 C   0  0  0  0  0  0  0  0  0  0  0  0
    3.9357    5.1246    0.0000 O   0  0  0  0  0  0  0  0  0  0  0  0
    3.6224    4.1749    0.0000 C   0  0  0  0  0  0  0  0  0  0  0  0
    4.2939    3.4269    0.0000 C   0  0  0  0  0  0  0  0  0  0  0  0
    3.9807    2.4771    0.0000 C   0  0  0  0  0  0  0  0  0  0  0  0
    3.0029    2.2678    0.0000 C   0  0  0  0  0  0  0  0  0  0  0  0
    2.3314    3.0159    0.0000 C   0  0  0  0  0  0  0  0  0  0  0  0
    2.6377    3.9732    0.0000 C   0  0  0  0  0  0  0  0  0  0  0  0
    2.6938    1.3168    0.0000 C   0  0  0  0  0  0  0  0  0  0  0  0
    3.2858    0.5022    0.0000 C   0  0  0  0  0  0  0  0  0  0  0  0
    2.6938   -0.3126    0.0000 C   0  0  0  0  0  0  0  0  0  0  0  0
    1.7360   -0.0013    0.0000 C   0  0  0  0  0  0  0  0  0  0  0  0
    0.8680   -0.4979    0.0000 C   0  0  0  0  0  0  0  0  0  0  0  0
    0.0000    0.0000    0.0000 C   0  0  0  0  0  0  0  0  0  0  0  0
   -0.0000    1.0058    0.0000 C   0  0  0  0  0  0  0  0  0  0  0  0
    0.8680    1.5137    0.0000 N   0  0  0  0  0  0  0  0  0  0  0  0
    1.7360    1.0058    0.0000 N   0  0  0  0  0  0  0  0  0  0  0  0
    4.2858    0.5023    0.0000 C   0  0  0  0  0  0  0  0  0  0  0  0
    4.7857    1.3683    0.0000 O   0  0  0  0  0  0  0  0  0  0  0  0
    4.7859   -0.3637    0.0000 N   0  0  0  0  0  0  0  0  0  0  0  0
    5.7806   -0.4702    0.0000 C   0  0  0  0  0  0  0  0  0  0  0  0
    5.9927   -1.4475    0.0000 C   0  0  0  0  0  0  0  0  0  0  0  0
    5.1261   -1.9497    0.0000 C   0  0  0  0  0  0  0  0  0  0  0  0
    4.3791   -1.2824    0.0000 C   0  0  0  0  0  0  0  0  0  0  0  0
    3.4016   -1.4932    0.0000 C   0  0  0  0  0  0  0  0  0  0  0  0
    3.0954   -2.4452    0.0000 O   0  0  0  0  0  0  0  0  0  0  0  0
  1  2  1  0
  2  3  1  0
  3  8  2  0
  3  4  1  0
  4  5  2  0
  5  6  1  0
  6  7  2  0
  7  8  1  0
  6  9  1  0
  9 17  1  0
  9 10  2  0
 10 11  1  0
 11 12  2  0
 12 17  1  0
 12 13  1  0
 13 14  2  0
 14 15  1  0
 15 16  2  0
 16 17  1  0
 10 18  1  0
 18 19  2  0
 18 20  1  0
 20 24  1  0
 20 21  1  0
 21 22  1  0
 22 23  1  0
 23 24  1  0
 24 25  1  1
 25 26  1  0
M  END
>  <SMILES>  (290) 
COc1ccc(-c2c(C(=O)N3CCC[C@H]3CO)cc3cccnn23)cc1

>  <CollectionName>  (290) 
chembl

>  <LOG PLASMA PROTEIN BINDING (RAT) (% unbound)>  (290) 
1.41813549843

>  <Internal ID>  (290) 


>  <Source>  (290) 
AstraZeneca

$$$$
CHEMBL2180033
     RDKit          2D

 23 26  0  0  1  0  0  0  0  0999 V2000
   -3.3825   -4.9778    0.0000 C   0  0  0  0  0  0  0  0  0  0  0  0
   -3.2733   -3.9838    0.0000 C   0  0  0  0  0  0  0  0  0  0  0  0
   -2.4044   -3.4860    0.0000 N   0  0  0  0  0  0  0  0  0  0  0  0
   -2.6070   -2.5050    0.0000 C   0  0  0  0  0  0  0  0  0  0  0  0
   -3.6057   -2.3962    0.0000 N   0  0  0  0  0  0  0  0  0  0  0  0
   -4.0125   -3.3102    0.0000 C   0  0  0  0  0  0  0  0  0  0  0  0
   -4.9912   -3.5153    0.0000 N   0  0  0  0  0  0  0  0  0  0  0  0
   -1.6120   -2.4055    0.0000 C   0  0  0  0  0  0  0  0  0  0  0  0
   -0.6983   -2.8167    0.0000 C   0  0  0  0  0  0  0  0  0  0  0  0
   -0.7978   -1.8217    0.0000 C   0  0  0  0  0  0  0  0  0  0  0  0
   -2.6026   -1.5050    0.0000 C   0  0  0  0  0  0  0  0  0  0  0  0
   -3.4723   -1.0011    0.0000 C   0  0  0  0  0  0  0  0  0  0  0  0
   -3.4679   -0.0011    0.0000 C   0  0  0  0  0  0  0  0  0  0  0  0
   -2.6026    0.5001    0.0000 C   0  0  0  0  0  0  0  0  0  0  0  0
   -1.7328   -0.0038    0.0000 C   0  0  0  0  0  0  0  0  0  0  0  0
   -1.7284   -1.0089    0.0000 C   0  0  0  0  0  0  0  0  0  0  0  0
   -0.8675    0.4975    0.0000 C   0  0  0  0  0  0  0  0  0  0  0  0
   -0.8675    1.5027    0.0000 C   0  0  0  0  0  0  0  0  0  0  0  0
   -0.0000    2.0104    0.0000 N   0  0  0  0  0  0  0  0  0  0  0  0
    0.8675    1.5027    0.0000 C   0  0  0  0  0  0  0  0  0  0  0  0
    0.8675    0.4975    0.0000 C   0  0  0  0  0  0  0  0  0  0  0  0
    1.7328   -0.0038    0.0000 Cl  0  0  0  0  0  0  0  0  0  0  0  0
    0.0000    0.0000    0.0000 C   0  0  0  0  0  0  0  0  0  0  0  0
  1  2  1  0
  2  6  1  0
  2  3  2  0
  3  4  1  0
  4  5  1  0
  5  6  2  0
  6  7  1  0
  4  8  1  0
  8 10  1  0
  8  9  1  0
  9 10  1  0
  4 11  1  0
 11 16  1  0
 11 12  2  0
 12 13  1  0
 13 14  2  0
 14 15  1  0
 15 16  2  0
 15 17  1  0
 17 23  1  0
 17 18  2  0
 18 19  1  0
 19 20  2  0
 20 21  1  0
 21 22  1  0
 21 23  2  0
M  END
>  <SMILES>  (291) 
CC1=NC(c2cccc(-c3cncc(Cl)c3)c2)(C2CC2)N=C1N

>  <CollectionName>  (291) 
chembl

>  <LOG PLASMA PROTEIN BINDING (RAT) (% unbound)>  (291) 
1.00389116624

>  <Internal ID>  (291) 


>  <Source>  (291) 
AstraZeneca

$$$$
CHEMBL11
     RDKit          2D

 21 23  0  0  0  0  0  0  0  0999 V2000
    1.1301   -5.0230    0.0000 C   0  0  0  0  0  0  0  0  0  0  0  0
    1.1257   -4.0230    0.0000 N   0  0  0  0  0  0  0  0  0  0  0  0
    0.2575   -3.5268    0.0000 C   0  0  0  0  0  0  0  0  0  0  0  0
    1.9896   -3.5192    0.0000 C   0  0  0  0  0  0  0  0  0  0  0  0
    1.9852   -2.5192    0.0000 C   0  0  0  0  0  0  0  0  0  0  0  0
    2.8490   -2.0154    0.0000 C   0  0  0  0  0  0  0  0  0  0  0  0
    2.8446   -1.0154    0.0000 N   0  0  0  0  0  0  0  0  0  0  0  0
    1.9312   -0.5840    0.0000 C   0  0  0  0  0  0  0  0  0  0  0  0
    1.2003   -1.2778    0.0000 C   0  0  0  0  0  0  0  0  0  0  0  0
    0.2313   -0.9837    0.0000 C   0  0  0  0  0  0  0  0  0  0  0  0
    0.0000    0.0000    0.0000 C   0  0  0  0  0  0  0  0  0  0  0  0
    0.7377    0.6898    0.0000 C   0  0  0  0  0  0  0  0  0  0  0  0
    1.6999    0.3997    0.0000 C   0  0  0  0  0  0  0  0  0  0  0  0
    2.3292    1.1930    0.0000 C   0  0  0  0  0  0  0  0  0  0  0  0
    3.3333    1.1944    0.0000 C   0  0  0  0  0  0  0  0  0  0  0  0
    3.9620    0.4062    0.0000 C   0  0  0  0  0  0  0  0  0  0  0  0
    4.9146    0.7195    0.0000 C   0  0  0  0  0  0  0  0  0  0  0  0
    5.6612    0.0428    0.0000 C   0  0  0  0  0  0  0  0  0  0  0  0
    5.4510   -0.9405    0.0000 C   0  0  0  0  0  0  0  0  0  0  0  0
    4.4941   -1.2472    0.0000 C   0  0  0  0  0  0  0  0  0  0  0  0
    3.7517   -0.5772    0.0000 C   0  0  0  0  0  0  0  0  0  0  0  0
  1  2  1  0
  2  3  1  0
  2  4  1  0
  4  5  1  0
  5  6  1  0
  6  7  1  0
  7 21  1  0
  7  8  1  0
  8 13  2  0
  8  9  1  0
  9 10  2  0
 10 11  1  0
 11 12  2  0
 12 13  1  0
 13 14  1  0
 14 15  1  0
 15 16  1  0
 16 21  2  0
 16 17  1  0
 17 18  2  0
 18 19  1  0
 19 20  2  0
 20 21  1  0
M  END
>  <SMILES>  (292) 
CN(C)CCCN1c2ccccc2CCc2ccccc21

>  <CollectionName>  (292) 
chembl

>  <LOG PLASMA PROTEIN BINDING (RAT) (% unbound)>  (292) 
1.23754373814

>  <Internal ID>  (292) 


>  <Source>  (292) 
AstraZeneca

$$$$
CHEMBL378730
     RDKit          2D

 26 29  0  0  0  0  0  0  0  0999 V2000
    6.0364   -2.4446    0.0000 C   0  0  0  0  0  0  0  0  0  0  0  0
    5.0574   -2.6485    0.0000 C   0  0  0  0  0  0  0  0  0  0  0  0
    4.7413   -3.6034    0.0000 C   0  0  0  0  0  0  0  0  0  0  0  0
    3.7577   -3.8128    0.0000 C   0  0  0  0  0  0  0  0  0  0  0  0
    3.0933   -3.0578    0.0000 C   0  0  0  0  0  0  0  0  0  0  0  0
    3.4098   -2.1018    0.0000 C   0  0  0  0  0  0  0  0  0  0  0  0
    4.3899   -1.9032    0.0000 C   0  0  0  0  0  0  0  0  0  0  0  0
    2.5983   -1.5053    0.0000 C   0  0  0  0  0  0  0  0  0  0  0  0
    1.7803   -2.0928    0.0000 C   0  0  0  0  0  0  0  0  0  0  0  0
    0.8309   -1.7785    0.0000 C   0  0  0  0  0  0  0  0  0  0  0  0
    2.0863   -3.0521    0.0000 N   0  0  0  0  0  0  0  0  0  0  0  0
    1.4940   -3.8579    0.0000 C   0  0  0  0  0  0  0  0  0  0  0  0
    0.5001   -3.7479    0.0000 C   0  0  0  0  0  0  0  0  0  0  0  0
    0.0984   -2.8321    0.0000 O   0  0  0  0  0  0  0  0  0  0  0  0
   -0.0922   -4.5536    0.0000 O   0  0  0  0  0  0  0  0  0  0  0  0
    2.6039   -0.5053    0.0000 C   0  0  0  0  0  0  0  0  0  0  0  0
    3.4805   -0.0073    0.0000 C   0  0  0  0  0  0  0  0  0  0  0  0
    3.4848    1.0014    0.0000 C   0  0  0  0  0  0  0  0  0  0  0  0
    2.6125    1.5125    0.0000 N   0  0  0  0  0  0  0  0  0  0  0  0
    1.7414    1.0089    0.0000 C   0  0  0  0  0  0  0  0  0  0  0  0
    0.8707    1.5185    0.0000 C   0  0  0  0  0  0  0  0  0  0  0  0
    0.8707    2.5185    0.0000 Cl  0  0  0  0  0  0  0  0  0  0  0  0
    0.0000    1.0089    0.0000 C   0  0  0  0  0  0  0  0  0  0  0  0
    0.0000    0.0000    0.0000 C   0  0  0  0  0  0  0  0  0  0  0  0
    0.8707   -0.4993    0.0000 C   0  0  0  0  0  0  0  0  0  0  0  0
    1.7371   -0.0000    0.0000 C   0  0  0  0  0  0  0  0  0  0  0  0
  1  2  1  0
  2  7  2  0
  2  3  1  0
  3  4  2  0
  4  5  1  0
  5 11  1  0
  5  6  2  0
  6  7  1  0
  6  8  1  0
  8  9  2  0
  9 10  1  0
  9 11  1  0
 11 12  1  0
 12 13  1  0
 13 14  2  0
 13 15  1  0
  8 16  1  0
 16 26  1  0
 16 17  2  0
 17 18  1  0
 18 19  2  0
 19 20  1  0
 20 26  2  0
 20 21  1  0
 21 22  1  0
 21 23  2  0
 23 24  1  0
 24 25  2  0
 25 26  1  0
M  END
>  <SMILES>  (293) 
Cc1ccc2c(c1)c(-c1ccnc3c(Cl)cccc13)c(C)n2CC(=O)O

>  <CollectionName>  (293) 
chembl

>  <LOG PLASMA PROTEIN BINDING (RAT) (% unbound)>  (293) 
-0.113509274828

>  <Internal ID>  (293) 


>  <Source>  (293) 
AstraZeneca

$$$$
CHEMBL378997
     RDKit          2D

 25 26  0  0  1  0  0  0  0  0999 V2000
   -6.5482    1.1560    0.0000 C   0  0  0  0  0  0  0  0  0  0  0  0
   -5.5970    0.8474    0.0000 O   0  0  0  0  0  0  0  0  0  0  0  0
   -4.8541    1.5169    0.0000 C   0  0  0  0  0  0  0  0  0  0  0  0
   -5.0625    2.4949    0.0000 O   0  0  0  0  0  0  0  0  0  0  0  0
   -3.9029    1.2083    0.0000 N   0  0  0  0  0  0  0  0  0  0  0  0
   -3.1601    1.8777    0.0000 C   0  0  0  0  0  0  0  0  0  0  0  0
   -3.3684    2.8558    0.0000 C   0  0  0  0  0  0  0  0  0  0  0  0
   -2.2089    1.5691    0.0000 C   0  0  0  0  0  0  0  0  0  0  0  0
   -1.2577    1.2605    0.0000 C   0  0  0  0  0  0  0  0  0  0  0  0
   -0.3065    0.9519    0.0000 C   0  0  0  0  0  0  0  0  0  0  0  0
    0.0000    0.0000    0.0000 C   0  0  0  0  0  0  0  0  0  0  0  0
    1.0015   -0.0000    0.0000 N   0  0  0  0  0  0  0  0  0  0  0  0
    1.3133    0.9519    0.0000 C   0  0  0  0  0  0  0  0  0  0  0  0
    2.2648    1.2596    0.0000 O   0  0  0  0  0  0  0  0  0  0  0  0
    3.0070    0.5894    0.0000 C   0  0  0  0  0  0  0  0  0  0  0  0
    2.7991   -0.3888    0.0000 C   0  0  0  0  0  0  0  0  0  0  0  0
    3.5384   -1.0622    0.0000 C   0  0  0  0  0  0  0  0  0  0  0  0
    4.4953   -0.7544    0.0000 C   0  0  0  0  0  0  0  0  0  0  0  0
    5.2345   -1.4278    0.0000 O   0  0  0  0  0  0  0  0  0  0  0  0
    6.1873   -1.1244    0.0000 C   0  0  0  0  0  0  0  0  0  0  0  0
    6.4010   -0.1474    0.0000 C   0  0  0  0  0  0  0  0  0  0  0  0
    6.9266   -1.7978    0.0000 C   0  0  0  0  0  0  0  0  0  0  0  0
    4.7129    0.2269    0.0000 C   0  0  0  0  0  0  0  0  0  0  0  0
    3.9639    0.8972    0.0000 C   0  0  0  0  0  0  0  0  0  0  0  0
    0.5008    1.5428    0.0000 S   0  0  0  0  0  0  0  0  0  0  0  0
  1  2  1  0
  2  3  1  0
  3  4  2  0
  3  5  1  0
  5  6  1  0
  6  7  1  1
  6  8  1  0
  8  9  3  0
  9 10  1  0
 10 25  1  0
 10 11  2  0
 11 12  1  0
 12 13  2  0
 13 14  1  0
 14 15  1  0
 15 24  1  0
 15 16  2  0
 16 17  1  0
 17 18  2  0
 18 19  1  0
 19 20  1  0
 20 21  1  0
 20 22  1  0
 18 23  1  0
 23 24  2  0
 13 25  1  0
M  END
>  <SMILES>  (294) 
COC(=O)N[C@@H](C)C#Cc1cnc(Oc2ccc(OC(C)C)cc2)s1

>  <CollectionName>  (294) 
chembl

>  <LOG PLASMA PROTEIN BINDING (RAT) (% unbound)>  (294) 
-0.292429823902

>  <Internal ID>  (294) 


>  <Source>  (294) 
AstraZeneca

$$$$
CHEMBL380648
     RDKit          2D

 28 31  0  0  0  0  0  0  0  0999 V2000
    6.0684    3.5070    0.0000 F   0  0  0  0  0  0  0  0  0  0  0  0
    5.2015    3.0085    0.0000 C   0  0  0  0  0  0  0  0  0  0  0  0
    5.1983    2.0085    0.0000 C   0  0  0  0  0  0  0  0  0  0  0  0
    4.3336    1.5062    0.0000 C   0  0  0  0  0  0  0  0  0  0  0  0
    3.4632    2.0090    0.0000 C   0  0  0  0  0  0  0  0  0  0  0  0
    2.5985    1.5067    0.0000 C   0  0  0  0  0  0  0  0  0  0  0  0
    2.6012    0.5067    0.0000 C   0  0  0  0  0  0  0  0  0  0  0  0
    3.4735    0.0022    0.0000 N   0  0  0  0  0  0  0  0  0  0  0  0
    3.4748   -1.0035    0.0000 N   0  0  0  0  0  0  0  0  0  0  0  0
    2.6038   -1.5046    0.0000 C   0  0  0  0  0  0  0  0  0  0  0  0
    2.6037   -2.5046    0.0000 O   0  0  0  0  0  0  0  0  0  0  0  0
    1.7371   -1.0057    0.0000 C   0  0  0  0  0  0  0  0  0  0  0  0
    0.8679   -1.5035    0.0000 C   0  0  0  0  0  0  0  0  0  0  0  0
    0.0000   -1.0057    0.0000 C   0  0  0  0  0  0  0  0  0  0  0  0
    0.0000    0.0000    0.0000 C   0  0  0  0  0  0  0  0  0  0  0  0
    0.8679    0.5078    0.0000 C   0  0  0  0  0  0  0  0  0  0  0  0
    1.7358    0.0000    0.0000 C   0  0  0  0  0  0  0  0  0  0  0  0
    3.4576    3.0141    0.0000 C   0  0  0  0  0  0  0  0  0  0  0  0
    4.3311    3.5113    0.0000 C   0  0  0  0  0  0  0  0  0  0  0  0
    4.3344    4.5113    0.0000 C   0  0  0  0  0  0  0  0  0  0  0  0
    5.2020    5.0085    0.0000 O   0  0  0  0  0  0  0  0  0  0  0  0
    3.4700    5.0141    0.0000 N   0  0  0  0  0  0  0  0  0  0  0  0
    3.5513    6.0139    0.0000 C   0  0  0  0  0  0  0  0  0  0  0  0
    2.8154    6.6955    0.0000 C   0  0  0  0  0  0  0  0  0  0  0  0
    1.8194    6.5485    0.0000 C   0  0  0  0  0  0  0  0  0  0  0  0
    1.3139    5.6856    0.0000 N   0  0  0  0  0  0  0  0  0  0  0  0
    1.6781    4.7469    0.0000 C   0  0  0  0  0  0  0  0  0  0  0  0
    2.6389    4.4475    0.0000 C   0  0  0  0  0  0  0  0  0  0  0  0
  1  2  1  0
  2 19  2  0
  2  3  1  0
  3  4  2  0
  4  5  1  0
  5  6  1  0
  6  7  1  0
  7 17  1  0
  7  8  2  0
  8  9  1  0
  9 10  1  0
 10 11  2  0
 10 12  1  0
 12 17  2  0
 12 13  1  0
 13 14  2  0
 14 15  1  0
 15 16  2  0
 16 17  1  0
  5 18  2  0
 18 19  1  0
 19 20  1  0
 20 21  2  0
 20 22  1  0
 22 28  1  0
 22 23  1  0
 23 24  1  0
 24 25  1  0
 25 26  1  0
 26 27  1  0
 27 28  1  0
M  END
>  <SMILES>  (295) 
O=C(c1cc(Cc2n[nH]c(=O)c3ccccc23)ccc1F)N1CCCNCC1

>  <CollectionName>  (295) 
chembl

>  <LOG PLASMA PROTEIN BINDING (RAT) (% unbound)>  (295) 
1.77568324903

>  <Internal ID>  (295) 


>  <Source>  (295) 
AstraZeneca

$$$$
CHEMBL1463345
     RDKit          2D

 25 29  0  0  1  0  0  0  0  0999 V2000
    1.7511    2.0009    0.0000 C   0  0  0  0  0  0  0  0  0  0  0  0
    1.7497    1.0009    0.0000 C   0  0  0  0  0  0  0  0  0  0  0  0
    0.8773    1.5129    0.0000 C   0  0  0  0  0  0  0  0  0  0  0  0
    0.0051    1.0097    0.0000 C   0  0  0  0  0  0  0  0  0  0  0  0
    0.0000    0.0000    0.0000 C   0  0  0  0  0  0  0  0  0  0  0  0
   -0.8685   -0.4956    0.0000 O   0  0  0  0  0  0  0  0  0  0  0  0
    0.8670   -0.5064    0.0000 C   0  0  0  0  0  0  0  0  0  0  0  0
    1.7495   -0.0047    0.0000 C   0  0  0  0  0  0  0  0  0  0  0  0
    2.6153   -0.5050    0.0000 C   0  0  0  0  0  0  0  0  0  0  0  0
    3.4871   -0.0053    0.0000 C   0  0  0  0  0  0  0  0  0  0  0  0
    3.4836    1.0031    0.0000 C   0  0  0  0  0  0  0  0  0  0  0  0
    2.6161    1.5062    0.0000 C   0  0  0  0  0  0  0  0  0  0  0  0
    2.6131    2.5064    0.0000 C   0  0  0  0  0  0  0  0  0  0  0  0
    3.4855    3.0055    0.0000 C   0  0  0  0  0  0  0  0  0  0  0  0
    4.3531    2.5023    0.0000 C   0  0  0  0  0  0  0  0  0  0  0  0
    4.4569    3.4969    0.0000 C   0  0  0  0  0  0  0  0  0  0  0  0
    4.3531    1.4987    0.0000 C   0  0  0  0  0  0  0  0  0  0  0  0
    5.3074    1.1885    0.0000 C   0  0  0  0  0  0  0  0  0  0  0  0
    5.8974    2.0004    0.0000 C   0  0  0  0  0  0  0  0  0  0  0  0
    5.3086    2.8163    0.0000 C   0  0  0  0  0  0  0  0  0  0  0  0
    6.2825    3.0815    0.0000 C   0  0  0  0  0  0  0  0  0  0  0  0
    6.3314    4.0897    0.0000 C   0  0  0  0  0  0  0  0  0  0  0  0
    5.3875    4.4478    0.0000 C   0  0  0  0  0  0  0  0  0  0  0  0
    5.1247    5.4127    0.0000 O   0  0  0  0  0  0  0  0  0  0  0  0
    4.7556    3.6606    0.0000 O   0  0  0  0  0  0  0  0  0  0  0  0
  2  1  1  1
  2  8  1  0
  2 12  1  0
  2  3  1  0
  3  4  1  0
  4  5  1  0
  5  6  2  0
  5  7  1  0
  7  8  2  0
  8  9  1  0
  9 10  2  0
 11 10  1  6
 11 17  1  0
 11 12  1  0
 12 13  1  1
 13 14  1  0
 14 15  1  0
 20 15  1  0
 15 16  1  1
 15 17  1  0
 17 18  1  1
 18 19  1  0
 20 19  1  1
 20 25  1  0
 20 21  1  0
 21 22  1  0
 22 23  1  0
 23 24  2  0
 23 25  1  0
M  END
>  <SMILES>  (296) 
C[C@]12CCC(=O)C=C1C=C[C@@H]1[C@@H]2CC[C@@]2(C)[C@H]1CC[C@@]21CCC(=O)O1

>  <CollectionName>  (296) 
chembl

>  <LOG PLASMA PROTEIN BINDING (RAT) (% unbound)>  (296) 
0.583198773969

>  <Internal ID>  (296) 


>  <Source>  (296) 
AstraZeneca

$$$$
CHEMBL8809
     RDKit          2D

 22 23  0  0  1  0  0  0  0  0999 V2000
    1.3645    3.0441    0.0000 C   0  0  0  0  0  0  0  0  0  0  0  0
    0.4993    2.5428    0.0000 C   0  0  0  0  0  0  0  0  0  0  0  0
    0.5008    1.5428    0.0000 N   0  0  0  0  0  0  0  0  0  0  0  0
   -0.3065    0.9519    0.0000 C   0  0  0  0  0  0  0  0  0  0  0  0
    0.0000    0.0000    0.0000 C   0  0  0  0  0  0  0  0  0  0  0  0
    1.0015    0.0000    0.0000 C   0  0  0  0  0  0  0  0  0  0  0  0
    1.3133    0.9519    0.0000 C   0  0  0  0  0  0  0  0  0  0  0  0
    2.2648    1.2596    0.0000 C   0  0  0  0  0  0  0  0  0  0  0  0
    2.4741    2.2374    0.0000 N   0  0  0  0  0  0  0  0  0  0  0  0
    3.4256    2.5451    0.0000 C   0  0  0  0  0  0  0  0  0  0  0  0
    4.1678    1.8749    0.0000 O   0  0  0  0  0  0  0  0  0  0  0  0
    3.6349    3.5229    0.0000 C   0  0  0  0  0  0  0  0  0  0  0  0
    4.5895    3.8378    0.0000 C   0  0  0  0  0  0  0  0  0  0  0  0
    5.3336    3.1698    0.0000 O   0  0  0  0  0  0  0  0  0  0  0  0
    4.7999    4.8207    0.0000 C   0  0  0  0  0  0  0  0  0  0  0  0
    5.7509    5.1298    0.0000 Cl  0  0  0  0  0  0  0  0  0  0  0  0
    4.0557    5.4888    0.0000 C   0  0  0  0  0  0  0  0  0  0  0  0
    3.1033    5.1839    0.0000 C   0  0  0  0  0  0  0  0  0  0  0  0
    2.3621    5.8551    0.0000 Cl  0  0  0  0  0  0  0  0  0  0  0  0
    2.8929    4.2009    0.0000 C   0  0  0  0  0  0  0  0  0  0  0  0
    1.9405    3.8961    0.0000 O   0  0  0  0  0  0  0  0  0  0  0  0
    1.2003    4.5685    0.0000 C   0  0  0  0  0  0  0  0  0  0  0  0
  1  2  1  0
  2  3  1  0
  3  7  1  0
  3  4  1  0
  4  5  1  0
  5  6  1  0
  6  7  1  0
  7  8  1  6
  8  9  1  0
  9 10  1  0
 10 11  2  0
 10 12  1  0
 12 20  1  0
 12 13  2  0
 13 14  1  0
 13 15  1  0
 15 16  1  0
 15 17  2  0
 17 18  1  0
 18 19  1  0
 18 20  2  0
 20 21  1  0
 21 22  1  0
M  END
>  <SMILES>  (297) 
CCN1CCC[C@H]1CNC(=O)c1c(O)c(Cl)cc(Cl)c1OC

>  <CollectionName>  (297) 
chembl

>  <LOG PLASMA PROTEIN BINDING (RAT) (% unbound)>  (297) 
1.74608904306

>  <Internal ID>  (297) 


>  <Source>  (297) 
AstraZeneca

$$$$
CHEMBL1277809
     RDKit          2D

 26 29  0  0  0  0  0  0  0  0999 V2000
    3.4615   -2.0101    0.0000 O   0  0  0  0  0  0  0  0  0  0  0  0
    2.5983   -1.5053    0.0000 C   0  0  0  0  0  0  0  0  0  0  0  0
    1.7295   -2.0004    0.0000 N   0  0  0  0  0  0  0  0  0  0  0  0
    1.7240   -3.0004    0.0000 C   0  0  0  0  0  0  0  0  0  0  0  0
    0.8552   -3.4956    0.0000 C   0  0  0  0  0  0  0  0  0  0  0  0
    0.8525   -4.5008    0.0000 C   0  0  0  0  0  0  0  0  0  0  0  0
   -0.0163   -4.9960    0.0000 C   0  0  0  0  0  0  0  0  0  0  0  0
   -0.8825   -4.4962    0.0000 C   0  0  0  0  0  0  0  0  0  0  0  0
   -0.8798   -3.4910    0.0000 C   0  0  0  0  0  0  0  0  0  0  0  0
   -0.0110   -2.9856    0.0000 N   0  0  0  0  0  0  0  0  0  0  0  0
    2.6039   -0.5053    0.0000 C   0  0  0  0  0  0  0  0  0  0  0  0
    3.4805   -0.0073    0.0000 C   0  0  0  0  0  0  0  0  0  0  0  0
    3.4848    1.0014    0.0000 C   0  0  0  0  0  0  0  0  0  0  0  0
    2.6125    1.5125    0.0000 N   0  0  0  0  0  0  0  0  0  0  0  0
    1.7414    1.0089    0.0000 C   0  0  0  0  0  0  0  0  0  0  0  0
    0.8707    1.5185    0.0000 C   0  0  0  0  0  0  0  0  0  0  0  0
    0.0000    1.0089    0.0000 C   0  0  0  0  0  0  0  0  0  0  0  0
    0.0000    0.0000    0.0000 C   0  0  0  0  0  0  0  0  0  0  0  0
    0.8707   -0.4993    0.0000 C   0  0  0  0  0  0  0  0  0  0  0  0
    1.7371    0.0000    0.0000 C   0  0  0  0  0  0  0  0  0  0  0  0
    4.3535    1.4968    0.0000 C   0  0  0  0  0  0  0  0  0  0  0  0
    4.3559    2.5020    0.0000 C   0  0  0  0  0  0  0  0  0  0  0  0
    5.2246    2.9974    0.0000 C   0  0  0  0  0  0  0  0  0  0  0  0
    6.0909    2.4978    0.0000 C   0  0  0  0  0  0  0  0  0  0  0  0
    6.0885    1.4926    0.0000 C   0  0  0  0  0  0  0  0  0  0  0  0
    5.2198    0.9870    0.0000 C   0  0  0  0  0  0  0  0  0  0  0  0
  1  2  2  0
  2  3  1  0
  3  4  1  0
  4  5  1  0
  5 10  1  0
  5  6  2  0
  6  7  1  0
  7  8  2  0
  8  9  1  0
  9 10  2  0
  2 11  1  0
 11 20  1  0
 11 12  2  0
 12 13  1  0
 13 14  2  0
 14 15  1  0
 15 20  2  0
 15 16  1  0
 16 17  2  0
 17 18  1  0
 18 19  2  0
 19 20  1  0
 13 21  1  0
 21 26  1  0
 21 22  2  0
 22 23  1  0
 23 24  2  0
 24 25  1  0
 25 26  2  0
M  END
>  <SMILES>  (298) 
O=C(NCc1ccccn1)c1cc(-c2ccccc2)nc2ccccc12

>  <CollectionName>  (298) 
chembl

>  <LOG PLASMA PROTEIN BINDING (RAT) (% unbound)>  (298) 
0.301029995664

>  <Internal ID>  (298) 


>  <Source>  (298) 
AstraZeneca

$$$$
CHEMBL1213082
     RDKit          2D

 30 34  0  0  0  0  0  0  0  0999 V2000
    5.2084    1.0073    0.0000 C   0  0  0  0  0  0  0  0  0  0  0  0
    5.2099    0.0073    0.0000 C   0  0  0  0  0  0  0  0  0  0  0  0
    6.0759   -0.4927    0.0000 C   0  0  0  0  0  0  0  0  0  0  0  0
    6.0817   -1.4927    0.0000 C   0  0  0  0  0  0  0  0  0  0  0  0
    5.2126   -1.9978    0.0000 C   0  0  0  0  0  0  0  0  0  0  0  0
    4.3377   -1.5029    0.0000 C   0  0  0  0  0  0  0  0  0  0  0  0
    4.3408   -0.4978    0.0000 C   0  0  0  0  0  0  0  0  0  0  0  0
    3.4748    0.0023    0.0000 N   0  0  0  0  0  0  0  0  0  0  0  0
    3.4735    1.0079    0.0000 C   0  0  0  0  0  0  0  0  0  0  0  0
    2.6012    1.5123    0.0000 N   0  0  0  0  0  0  0  0  0  0  0  0
    1.7358    1.0056    0.0000 C   0  0  0  0  0  0  0  0  0  0  0  0
    0.8679    1.5135    0.0000 C   0  0  0  0  0  0  0  0  0  0  0  0
    0.0000    1.0056    0.0000 C   0  0  0  0  0  0  0  0  0  0  0  0
    0.0000    0.0000    0.0000 C   0  0  0  0  0  0  0  0  0  0  0  0
    0.8679   -0.4977    0.0000 C   0  0  0  0  0  0  0  0  0  0  0  0
    0.8676   -1.4977    0.0000 C   0  0  0  0  0  0  0  0  0  0  0  0
    1.7371    0.0000    0.0000 C   0  0  0  0  0  0  0  0  0  0  0  0
    2.6038   -0.4989    0.0000 C   0  0  0  0  0  0  0  0  0  0  0  0
    2.6037   -1.4989    0.0000 O   0  0  0  0  0  0  0  0  0  0  0  0
    4.3394    1.5082    0.0000 C   0  0  0  0  0  0  0  0  0  0  0  0
    4.3391    2.5082    0.0000 N   0  0  0  0  0  0  0  0  0  0  0  0
    5.1537    3.1004    0.0000 C   0  0  0  0  0  0  0  0  0  0  0  0
    4.8420    4.0580    0.0000 N   0  0  0  0  0  0  0  0  0  0  0  0
    3.8350    4.0578    0.0000 C   0  0  0  0  0  0  0  0  0  0  0  0
    3.1661    4.8089    0.0000 C   0  0  0  0  0  0  0  0  0  0  0  0
    3.4748    5.7600    0.0000 N   0  0  0  0  0  0  0  0  0  0  0  0
    2.1838    4.5937    0.0000 N   0  0  0  0  0  0  0  0  0  0  0  0
    1.8733    3.6370    0.0000 C   0  0  0  0  0  0  0  0  0  0  0  0
    2.5452    2.8955    0.0000 N   0  0  0  0  0  0  0  0  0  0  0  0
    3.5241    3.0999    0.0000 C   0  0  0  0  0  0  0  0  0  0  0  0
  1  2  1  0
  2  7  2  0
  2  3  1  0
  3  4  2  0
  4  5  1  0
  5  6  2  0
  6  7  1  0
  7  8  1  0
  8 18  1  0
  8  9  1  0
  9 10  2  0
 10 11  1  0
 11 17  2  0
 11 12  1  0
 12 13  2  0
 13 14  1  0
 14 15  2  0
 15 16  1  0
 15 17  1  0
 17 18  1  0
 18 19  2  0
  9 20  1  0
 20 21  1  0
 21 30  1  0
 21 22  1  0
 22 23  2  0
 23 24  1  0
 24 30  2  0
 24 25  1  0
 25 26  1  0
 25 27  2  0
 27 28  1  0
 28 29  2  0
 29 30  1  0
M  END
>  <SMILES>  (299) 
Cc1ccccc1-n1c(Cn2cnc3c(N)ncnc32)nc2cccc(C)c2c1=O

>  <CollectionName>  (299) 
chembl

>  <LOG PLASMA PROTEIN BINDING (RAT) (% unbound)>  (299) 
1.3807537708

>  <Internal ID>  (299) 


>  <Source>  (299) 
AstraZeneca

$$$$
CHEMBL1213085
     RDKit          2D

 38 43  0  0  0  0  0  0  0  0999 V2000
    5.2084    1.0073    0.0000 C   0  0  0  0  0  0  0  0  0  0  0  0
    5.2099    0.0073    0.0000 C   0  0  0  0  0  0  0  0  0  0  0  0
    6.0759   -0.4927    0.0000 C   0  0  0  0  0  0  0  0  0  0  0  0
    6.0817   -1.4927    0.0000 C   0  0  0  0  0  0  0  0  0  0  0  0
    5.2126   -1.9978    0.0000 C   0  0  0  0  0  0  0  0  0  0  0  0
    4.3377   -1.5029    0.0000 C   0  0  0  0  0  0  0  0  0  0  0  0
    4.3408   -0.4978    0.0000 C   0  0  0  0  0  0  0  0  0  0  0  0
    3.4748    0.0023    0.0000 N   0  0  0  0  0  0  0  0  0  0  0  0
    3.4735    1.0079    0.0000 C   0  0  0  0  0  0  0  0  0  0  0  0
    2.6012    1.5123    0.0000 N   0  0  0  0  0  0  0  0  0  0  0  0
    1.7358    1.0056    0.0000 C   0  0  0  0  0  0  0  0  0  0  0  0
    0.8679    1.5135    0.0000 C   0  0  0  0  0  0  0  0  0  0  0  0
    0.0000    1.0056    0.0000 C   0  0  0  0  0  0  0  0  0  0  0  0
    0.0000    0.0000    0.0000 C   0  0  0  0  0  0  0  0  0  0  0  0
    0.8679   -0.4977    0.0000 C   0  0  0  0  0  0  0  0  0  0  0  0
    0.8676   -1.4977    0.0000 C   0  0  0  0  0  0  0  0  0  0  0  0
    1.7371    0.0000    0.0000 C   0  0  0  0  0  0  0  0  0  0  0  0
    2.6038   -0.4989    0.0000 C   0  0  0  0  0  0  0  0  0  0  0  0
    2.6037   -1.4989    0.0000 O   0  0  0  0  0  0  0  0  0  0  0  0
    4.3394    1.5082    0.0000 C   0  0  0  0  0  0  0  0  0  0  0  0
    4.3391    2.5082    0.0000 N   0  0  0  0  0  0  0  0  0  0  0  0
    5.1537    3.1004    0.0000 N   0  0  0  0  0  0  0  0  0  0  0  0
    4.8420    4.0580    0.0000 C   0  0  0  0  0  0  0  0  0  0  0  0
    5.4295    4.8672    0.0000 C   0  0  0  0  0  0  0  0  0  0  0  0
    6.4289    4.7595    0.0000 C   0  0  0  0  0  0  0  0  0  0  0  0
    7.0165    5.5687    0.0000 C   0  0  0  0  0  0  0  0  0  0  0  0
    6.6148    6.4845    0.0000 C   0  0  0  0  0  0  0  0  0  0  0  0
    7.2059    7.2911    0.0000 O   0  0  0  0  0  0  0  0  0  0  0  0
    5.6154    6.5922    0.0000 C   0  0  0  0  0  0  0  0  0  0  0  0
    5.2138    7.5080    0.0000 F   0  0  0  0  0  0  0  0  0  0  0  0
    5.0177    5.7841    0.0000 C   0  0  0  0  0  0  0  0  0  0  0  0
    3.8350    4.0578    0.0000 C   0  0  0  0  0  0  0  0  0  0  0  0
    3.1661    4.8089    0.0000 C   0  0  0  0  0  0  0  0  0  0  0  0
    3.4748    5.7600    0.0000 N   0  0  0  0  0  0  0  0  0  0  0  0
    2.1838    4.5937    0.0000 N   0  0  0  0  0  0  0  0  0  0  0  0
    1.8733    3.6370    0.0000 C   0  0  0  0  0  0  0  0  0  0  0  0
    2.5452    2.8955    0.0000 N   0  0  0  0  0  0  0  0  0  0  0  0
    3.5241    3.0999    0.0000 C   0  0  0  0  0  0  0  0  0  0  0  0
  1  2  1  0
  2  7  2  0
  2  3  1  0
  3  4  2  0
  4  5  1  0
  5  6  2  0
  6  7  1  0
  7  8  1  0
  8 18  1  0
  8  9  1  0
  9 10  2  0
 10 11  1  0
 11 17  2  0
 11 12  1  0
 12 13  2  0
 13 14  1  0
 14 15  2  0
 15 16  1  0
 15 17  1  0
 17 18  1  0
 18 19  2  0
  9 20  1  0
 20 21  1  0
 21 38  1  0
 21 22  1  0
 22 23  2  0
 23 24  1  0
 24 31  1  0
 24 25  2  0
 25 26  1  0
 26 27  2  0
 27 28  1  0
 27 29  1  0
 29 30  1  0
 29 31  2  0
 23 32  1  0
 32 38  2  0
 32 33  1  0
 33 34  1  0
 33 35  2  0
 35 36  1  0
 36 37  2  0
 37 38  1  0
M  END
>  <SMILES>  (300) 
Cc1ccccc1-n1c(Cn2nc(-c3ccc(O)c(F)c3)c3c(N)ncnc32)nc2cccc(C)c2c1=O

>  <CollectionName>  (300) 
chembl

>  <LOG PLASMA PROTEIN BINDING (RAT) (% unbound)>  (300) 
0.495544337546

>  <Internal ID>  (300) 


>  <Source>  (300) 
AstraZeneca

$$$$
CHEMBL1232461
     RDKit          2D

 30 33  0  0  1  0  0  0  0  0999 V2000
    8.0211    0.6089    0.0000 C   0  0  0  0  0  0  0  0  0  0  0  0
    7.0477    0.3800    0.0000 C   0  0  0  0  0  0  0  0  0  0  0  0
    6.3628    1.1086    0.0000 N   0  0  0  0  0  0  0  0  0  0  0  0
    5.3893    0.8798    0.0000 C   0  0  0  0  0  0  0  0  0  0  0  0
    5.1008   -0.0777    0.0000 O   0  0  0  0  0  0  0  0  0  0  0  0
    4.7044    1.6084    0.0000 C   0  0  0  0  0  0  0  0  0  0  0  0
    3.7309    1.3795    0.0000 C   0  0  0  0  0  0  0  0  0  0  0  0
    3.5149    0.3951    0.0000 N   0  0  0  0  0  0  0  0  0  0  0  0
    2.6074   -0.0433    0.0000 C   0  0  0  0  0  0  0  0  0  0  0  0
    2.6118   -1.0433    0.0000 C   0  0  0  0  0  0  0  0  0  0  0  0
    1.7487   -1.5484    0.0000 C   0  0  0  0  0  0  0  0  0  0  0  0
    1.7487   -2.5484    0.0000 C   0  0  0  0  0  0  0  0  0  0  0  0
    2.6207   -3.0484    0.0000 C   0  0  0  0  0  0  0  0  0  0  0  0
    2.6207   -4.0484    0.0000 Cl  0  0  0  0  0  0  0  0  0  0  0  0
    3.4927   -2.5484    0.0000 C   0  0  0  0  0  0  0  0  0  0  0  0
    3.4838   -1.5433    0.0000 C   0  0  0  0  0  0  0  0  0  0  0  0
    1.6936    0.3883    0.0000 C   0  0  0  0  0  0  0  0  0  0  0  0
    0.9625   -0.2980    0.0000 C   0  0  0  0  0  0  0  0  0  0  0  0
    0.0000    0.0000    0.0000 C   0  0  0  0  0  0  0  0  0  0  0  0
   -0.7330   -0.6802    0.0000 O   0  0  0  0  0  0  0  0  0  0  0  0
   -1.6886   -0.3855    0.0000 C   0  0  0  0  0  0  0  0  0  0  0  0
   -0.2249    0.9801    0.0000 C   0  0  0  0  0  0  0  0  0  0  0  0
    0.5130    1.6623    0.0000 C   0  0  0  0  0  0  0  0  0  0  0  0
    1.4689    1.3684    0.0000 C   0  0  0  0  0  0  0  0  0  0  0  0
    2.0900    2.1653    0.0000 N   0  0  0  0  0  0  0  0  0  0  0  0
    1.7770    3.1217    0.0000 C   0  0  0  0  0  0  0  0  0  0  0  0
    0.8252    3.4285    0.0000 C   0  0  0  0  0  0  0  0  0  0  0  0
    2.5897    3.7152    0.0000 N   0  0  0  0  0  0  0  0  0  0  0  0
    3.4052    3.1254    0.0000 N   0  0  0  0  0  0  0  0  0  0  0  0
    3.0964    2.1676    0.0000 C   0  0  0  0  0  0  0  0  0  0  0  0
  1  2  1  0
  2  3  1  0
  3  4  1  0
  4  5  2  0
  4  6  1  0
  7  6  1  6
  7 30  1  0
  7  8  1  0
  8  9  2  0
  9 10  1  0
 10 16  1  0
 10 11  2  0
 11 12  1  0
 12 13  2  0
 13 14  1  0
 13 15  1  0
 15 16  2  0
  9 17  1  0
 17 24  2  0
 17 18  1  0
 18 19  2  0
 19 20  1  0
 20 21  1  0
 19 22  1  0
 22 23  2  0
 23 24  1  0
 24 25  1  0
 25 30  1  0
 25 26  1  0
 26 27  1  0
 26 28  2  0
 28 29  1  0
 29 30  2  0
M  END
>  <SMILES>  (301) 
CCNC(=O)C[C@@H]1N=C(c2ccc(Cl)cc2)c2cc(OC)ccc2-n2c(C)nnc21

>  <CollectionName>  (301) 
chembl

>  <LOG PLASMA PROTEIN BINDING (RAT) (% unbound)>  (301) 
1.4965145187

>  <Internal ID>  (301) 


>  <Source>  (301) 
AstraZeneca

$$$$
CHEMBL304858
     RDKit          2D

 28 29  0  0  1  0  0  0  0  0999 V2000
    3.5012   -8.9810    0.0000 C   0  0  0  0  0  0  0  0  0  0  0  0
    2.6381   -9.4860    0.0000 N   0  0  0  0  0  0  0  0  0  0  0  0
    1.7692   -8.9911    0.0000 C   0  0  0  0  0  0  0  0  0  0  0  0
    1.7633   -7.9911    0.0000 C   0  0  0  0  0  0  0  0  0  0  0  0
    0.8944   -7.4962    0.0000 C   0  0  0  0  0  0  0  0  0  0  0  0
    0.8885   -6.4962    0.0000 C   0  0  0  0  0  0  0  0  0  0  0  0
    0.0196   -6.0013    0.0000 C   0  0  0  0  0  0  0  0  0  0  0  0
    0.0137   -5.0013    0.0000 C   0  0  0  0  0  0  0  0  0  0  0  0
   -0.8552   -4.5064    0.0000 O   0  0  0  0  0  0  0  0  0  0  0  0
   -0.8611   -3.5064    0.0000 C   0  0  0  0  0  0  0  0  0  0  0  0
    0.0080   -3.0013    0.0000 C   0  0  0  0  0  0  0  0  0  0  0  0
    0.0022   -2.0013    0.0000 C   0  0  0  0  0  0  0  0  0  0  0  0
   -0.8638   -1.5013    0.0000 C   0  0  0  0  0  0  0  0  0  0  0  0
   -0.8653   -0.5013    0.0000 C   0  0  0  0  0  0  0  0  0  0  0  0
   -1.7320   -0.0025    0.0000 O   0  0  0  0  0  0  0  0  0  0  0  0
    0.0000    0.0000    0.0000 C   0  0  0  0  0  0  0  0  0  0  0  0
    0.8675   -0.4975    0.0000 C   0  0  0  0  0  0  0  0  0  0  0  0
    1.7350    0.0000    0.0000 C   0  0  0  0  0  0  0  0  0  0  0  0
    1.7350    1.0052    0.0000 C   0  0  0  0  0  0  0  0  0  0  0  0
    2.6025    1.5026    0.0000 Br  0  0  0  0  0  0  0  0  0  0  0  0
    0.8675    1.5129    0.0000 C   0  0  0  0  0  0  0  0  0  0  0  0
   -0.0000    1.0052    0.0000 C   0  0  0  0  0  0  0  0  0  0  0  0
   -1.7329   -2.0064    0.0000 C   0  0  0  0  0  0  0  0  0  0  0  0
   -2.5989   -1.5063    0.0000 F   0  0  0  0  0  0  0  0  0  0  0  0
   -1.7359   -3.0115    0.0000 C   0  0  0  0  0  0  0  0  0  0  0  0
    2.6440  -10.4860    0.0000 C   0  0  0  0  0  0  0  0  0  0  0  0
    3.5129  -10.9809    0.0000 C   0  0  0  0  0  0  0  0  0  0  0  0
    3.5187  -11.9809    0.0000 C   0  0  0  0  0  0  0  0  0  0  0  0
  1  2  1  0
  2  3  1  0
  3  4  1  0
  4  5  1  0
  5  6  1  0
  6  7  1  0
  7  8  1  0
  8  9  1  0
  9 10  1  0
 10 25  2  0
 10 11  1  0
 11 12  2  0
 12 13  1  0
 13 14  1  0
 14 15  2  0
 14 16  1  0
 16 22  1  0
 16 17  2  0
 17 18  1  0
 18 19  2  0
 19 20  1  0
 19 21  1  0
 21 22  2  0
 13 23  2  0
 23 24  1  0
 23 25  1  0
  2 26  1  0
 26 27  1  0
 27 28  2  0
M  END
>  <SMILES>  (302) 
C=CCN(C)CCCCCCOc1ccc(C(=O)c2ccc(Br)cc2)c(F)c1

>  <CollectionName>  (302) 
chembl

>  <LOG PLASMA PROTEIN BINDING (RAT) (% unbound)>  (302) 
-1.22184874962

>  <Internal ID>  (302) 


>  <Source>  (302) 
AstraZeneca

$$$$
CHEMBL2057371
     RDKit          2D

 35 38  0  0  0  0  0  0  0  0999 V2000
   -1.7372    7.0046    0.0000 C   0  0  0  0  0  0  0  0  0  0  0  0
   -1.7372    6.0046    0.0000 C   0  0  0  0  0  0  0  0  0  0  0  0
   -0.7372    6.0046    0.0000 C   0  0  0  0  0  0  0  0  0  0  0  0
   -2.7372    6.0046    0.0000 C   0  0  0  0  0  0  0  0  0  0  0  0
   -1.7372    5.0046    0.0000 N   0  0  0  0  0  0  0  0  0  0  0  0
   -1.7372    4.0046    0.0000 S   0  0  0  0  0  0  0  0  0  0  0  0
   -2.7372    4.0046    0.0000 O   0  0  0  0  0  0  0  0  0  0  0  0
   -0.7372    4.0046    0.0000 O   0  0  0  0  0  0  0  0  0  0  0  0
   -1.7372    3.0046    0.0000 C   0  0  0  0  0  0  0  0  0  0  0  0
   -2.6070    2.5007    0.0000 C   0  0  0  0  0  0  0  0  0  0  0  0
   -2.6114    1.4956    0.0000 N   0  0  0  0  0  0  0  0  0  0  0  0
   -1.7373    0.9994    0.0000 C   0  0  0  0  0  0  0  0  0  0  0  0
   -0.8675    1.5033    0.0000 C   0  0  0  0  0  0  0  0  0  0  0  0
   -0.8718    2.5033    0.0000 C   0  0  0  0  0  0  0  0  0  0  0  0
   -0.0000    1.0058    0.0000 C   0  0  0  0  0  0  0  0  0  0  0  0
    0.0000    0.0000    0.0000 C   0  0  0  0  0  0  0  0  0  0  0  0
    0.8680   -0.4979    0.0000 C   0  0  0  0  0  0  0  0  0  0  0  0
    1.7360   -0.0013    0.0000 C   0  0  0  0  0  0  0  0  0  0  0  0
    2.6938   -0.3126    0.0000 N   0  0  0  0  0  0  0  0  0  0  0  0
    3.2858    0.5022    0.0000 C   0  0  0  0  0  0  0  0  0  0  0  0
    4.2858    0.5023    0.0000 N   0  0  0  0  0  0  0  0  0  0  0  0
    4.7857    1.3683    0.0000 C   0  0  0  0  0  0  0  0  0  0  0  0
    4.2857    2.2343    0.0000 O   0  0  0  0  0  0  0  0  0  0  0  0
    5.7857    1.3684    0.0000 N   0  0  0  0  0  0  0  0  0  0  0  0
    6.2857    2.2344    0.0000 C   0  0  0  0  0  0  0  0  0  0  0  0
    7.2857    2.2345    0.0000 C   0  0  0  0  0  0  0  0  0  0  0  0
    7.7857    1.3685    0.0000 O   0  0  0  0  0  0  0  0  0  0  0  0
    7.7856    3.1005    0.0000 N   0  0  0  0  0  0  0  0  0  0  0  0
    8.7804    3.2072    0.0000 C   0  0  0  0  0  0  0  0  0  0  0  0
    8.9923    4.1845    0.0000 C   0  0  0  0  0  0  0  0  0  0  0  0
    8.1258    4.6865    0.0000 C   0  0  0  0  0  0  0  0  0  0  0  0
    7.3788    4.0191    0.0000 C   0  0  0  0  0  0  0  0  0  0  0  0
    2.6938    1.3168    0.0000 N   0  0  0  0  0  0  0  0  0  0  0  0
    1.7360    1.0058    0.0000 N   0  0  0  0  0  0  0  0  0  0  0  0
    0.8680    1.5137    0.0000 C   0  0  0  0  0  0  0  0  0  0  0  0
  1  2  1  0
  2  3  1  0
  2  4  1  0
  2  5  1  0
  5  6  1  0
  6  7  2  0
  6  8  2  0
  6  9  1  0
  9 14  2  0
  9 10  1  0
 10 11  2  0
 11 12  1  0
 12 13  2  0
 13 14  1  0
 13 15  1  0
 15 35  2  0
 15 16  1  0
 16 17  2  0
 17 18  1  0
 18 34  1  0
 18 19  2  0
 19 20  1  0
 20 21  1  0
 21 22  1  0
 22 23  2  0
 22 24  1  0
 24 25  1  0
 25 26  1  0
 26 27  2  0
 26 28  1  0
 28 32  1  0
 28 29  1  0
 29 30  1  0
 30 31  1  0
 31 32  1  0
 20 33  2  0
 33 34  1  0
 34 35  1  0
M  END
>  <SMILES>  (303) 
CC(C)(C)NS(=O)(=O)c1cncc(-c2ccc3nc(NC(=O)NCC(=O)N4CCCC4)nn3c2)c1

>  <CollectionName>  (303) 
chembl

>  <LOG PLASMA PROTEIN BINDING (RAT) (% unbound)>  (303) 
1.36530074864

>  <Internal ID>  (303) 


>  <Source>  (303) 
AstraZeneca

$$$$
CHEMBL2071491
     RDKit          2D

 24 25  0  0  1  0  0  0  0  0999 V2000
    2.6114    4.5026    0.0000 C   0  0  0  0  0  0  0  0  0  0  0  0
    3.4759    4.0001    0.0000 C   0  0  0  0  0  0  0  0  0  0  0  0
    4.3434    4.4975    0.0000 C   0  0  0  0  0  0  0  0  0  0  0  0
    3.4729    3.0001    0.0000 C   0  0  0  0  0  0  0  0  0  0  0  0
    2.6054    2.5026    0.0000 N   0  0  0  0  0  0  0  0  0  0  0  0
    2.6025    1.5026    0.0000 C   0  0  0  0  0  0  0  0  0  0  0  0
    3.4670    1.0001    0.0000 O   0  0  0  0  0  0  0  0  0  0  0  0
    1.7350    1.0052    0.0000 C   0  0  0  0  0  0  0  0  0  0  0  0
    1.7350   -0.0000    0.0000 C   0  0  0  0  0  0  0  0  0  0  0  0
    0.8675   -0.4975    0.0000 C   0  0  0  0  0  0  0  0  0  0  0  0
    0.0000    0.0000    0.0000 C   0  0  0  0  0  0  0  0  0  0  0  0
    0.0000    1.0052    0.0000 C   0  0  0  0  0  0  0  0  0  0  0  0
    0.8675    1.5129    0.0000 C   0  0  0  0  0  0  0  0  0  0  0  0
    4.3375    2.4975    0.0000 C   0  0  0  0  0  0  0  0  0  0  0  0
    4.3345    1.4975    0.0000 O   0  0  0  0  0  0  0  0  0  0  0  0
    5.2050    2.9950    0.0000 C   0  0  0  0  0  0  0  0  0  0  0  0
    5.2094    3.9950    0.0000 C   0  0  0  0  0  0  0  0  0  0  0  0
    6.0747    4.4962    0.0000 C   0  0  0  0  0  0  0  0  0  0  0  0
    6.9445    3.9923    0.0000 C   0  0  0  0  0  0  0  0  0  0  0  0
    6.9489    2.9872    0.0000 C   0  0  0  0  0  0  0  0  0  0  0  0
    6.0748    2.4911    0.0000 C   0  0  0  0  0  0  0  0  0  0  0  0
    7.8098    4.4936    0.0000 N   0  0  0  0  0  0  0  0  0  0  0  0
    7.8084    5.4936    0.0000 O   0  0  0  0  0  0  0  0  0  0  0  0
    8.6766    3.9948    0.0000 O   0  0  0  0  0  0  0  0  0  0  0  0
  1  2  1  0
  2  3  1  0
  2  4  1  0
  4  5  1  0
  5  6  1  0
  6  7  2  0
  6  8  1  0
  8 13  1  0
  8  9  2  0
  9 10  1  0
 10 11  2  0
 11 12  1  0
 12 13  2  0
  4 14  1  0
 14 15  2  0
 14 16  1  0
 16 21  1  0
 16 17  2  0
 17 18  1  0
 18 19  2  0
 19 20  1  0
 20 21  2  0
 19 22  1  0
 22 23  2  0
 22 24  1  0
M  CHG  2  22   1  24  -1
M  END
>  <SMILES>  (304) 
CC(C)C(NC(=O)c1ccccc1)C(=O)c1ccc([N+](=O)[O-])cc1

>  <CollectionName>  (304) 
chembl

>  <LOG PLASMA PROTEIN BINDING (RAT) (% unbound)>  (304) 
0.838849090737

>  <Internal ID>  (304) 


>  <Source>  (304) 
AstraZeneca

$$$$
CHEMBL2011441
     RDKit          2D

 19 20  0  0  0  0  0  0  0  0999 V2000
    3.4670    1.0001    0.0000 C   0  0  0  0  0  0  0  0  0  0  0  0
    2.6025    1.5026    0.0000 O   0  0  0  0  0  0  0  0  0  0  0  0
    1.7350    1.0052    0.0000 C   0  0  0  0  0  0  0  0  0  0  0  0
    0.8675    1.5129    0.0000 N   0  0  0  0  0  0  0  0  0  0  0  0
    0.0000    1.0052    0.0000 C   0  0  0  0  0  0  0  0  0  0  0  0
   -0.8675    1.5026    0.0000 Br  0  0  0  0  0  0  0  0  0  0  0  0
    0.0000    0.0000    0.0000 C   0  0  0  0  0  0  0  0  0  0  0  0
    0.8675   -0.4975    0.0000 N   0  0  0  0  0  0  0  0  0  0  0  0
    1.7350    0.0000    0.0000 C   0  0  0  0  0  0  0  0  0  0  0  0
    2.6003   -0.5013    0.0000 N   0  0  0  0  0  0  0  0  0  0  0  0
    2.5988   -1.5013    0.0000 S   0  0  0  0  0  0  0  0  0  0  0  0
    3.5988   -1.5027    0.0000 O   0  0  0  0  0  0  0  0  0  0  0  0
    1.5988   -1.4998    0.0000 O   0  0  0  0  0  0  0  0  0  0  0  0
    2.5974   -2.5013    0.0000 C   0  0  0  0  0  0  0  0  0  0  0  0
    3.4074   -3.0877    0.0000 C   0  0  0  0  0  0  0  0  0  0  0  0
    3.0970   -4.0399    0.0000 C   0  0  0  0  0  0  0  0  0  0  0  0
    2.0953   -4.0413    0.0000 C   0  0  0  0  0  0  0  0  0  0  0  0
    1.5078   -4.8505    0.0000 Cl  0  0  0  0  0  0  0  0  0  0  0  0
    1.7854   -3.0856    0.0000 S   0  0  0  0  0  0  0  0  0  0  0  0
  1  2  1  0
  2  3  1  0
  3  9  2  0
  3  4  1  0
  4  5  2  0
  5  6  1  0
  5  7  1  0
  7  8  2  0
  8  9  1  0
  9 10  1  0
 10 11  1  0
 11 12  2  0
 11 13  2  0
 11 14  1  0
 14 19  1  0
 14 15  2  0
 15 16  1  0
 16 17  2  0
 17 18  1  0
 17 19  1  0
M  END
>  <SMILES>  (305) 
COc1nc(Br)cnc1NS(=O)(=O)c1ccc(Cl)s1

>  <CollectionName>  (305) 
chembl

>  <LOG PLASMA PROTEIN BINDING (RAT) (% unbound)>  (305) 
-0.698970004336

>  <Internal ID>  (305) 


>  <Source>  (305) 
AstraZeneca

$$$$
CHEMBL2018964
     RDKit          2D

 33 36  0  0  0  0  0  0  0  0999 V2000
    0.0012   -1.9973    0.0000 C   0  0  0  0  0  0  0  0  0  0  0  0
    0.8675   -1.4978    0.0000 O   0  0  0  0  0  0  0  0  0  0  0  0
    0.8680   -0.4978    0.0000 C   0  0  0  0  0  0  0  0  0  0  0  0
    0.0000    0.0000    0.0000 C   0  0  0  0  0  0  0  0  0  0  0  0
    0.0000    1.0058    0.0000 C   0  0  0  0  0  0  0  0  0  0  0  0
    0.8680    1.5138    0.0000 C   0  0  0  0  0  0  0  0  0  0  0  0
    1.7360    1.0058    0.0000 C   0  0  0  0  0  0  0  0  0  0  0  0
    1.7360   -0.0012    0.0000 C   0  0  0  0  0  0  0  0  0  0  0  0
    2.6938   -0.3126    0.0000 C   0  0  0  0  0  0  0  0  0  0  0  0
    3.0027   -1.2637    0.0000 N   0  0  0  0  0  0  0  0  0  0  0  0
    3.9808   -1.4717    0.0000 S   0  0  0  0  0  0  0  0  0  0  0  0
    3.7728   -2.4499    0.0000 O   0  0  0  0  0  0  0  0  0  0  0  0
    4.1889   -0.4936    0.0000 O   0  0  0  0  0  0  0  0  0  0  0  0
    4.9589   -1.6798    0.0000 C   0  0  0  0  0  0  0  0  0  0  0  0
    5.3627   -2.5946    0.0000 C   0  0  0  0  0  0  0  0  0  0  0  0
    6.3588   -2.4905    0.0000 C   0  0  0  0  0  0  0  0  0  0  0  0
    6.5700   -1.5114    0.0000 C   0  0  0  0  0  0  0  0  0  0  0  0
    7.4843   -1.1064    0.0000 Cl  0  0  0  0  0  0  0  0  0  0  0  0
    5.7004   -1.0081    0.0000 S   0  0  0  0  0  0  0  0  0  0  0  0
    3.2858    0.5021    0.0000 N   0  0  0  0  0  0  0  0  0  0  0  0
    2.6939    1.3169    0.0000 N   0  0  0  0  0  0  0  0  0  0  0  0
    3.0030    2.2679    0.0000 C   0  0  0  0  0  0  0  0  0  0  0  0
    3.9812    2.4757    0.0000 C   0  0  0  0  0  0  0  0  0  0  0  0
    4.2891    3.4326    0.0000 C   0  0  0  0  0  0  0  0  0  0  0  0
    5.2673    3.6405    0.0000 C   0  0  0  0  0  0  0  0  0  0  0  0
    5.9407    2.9012    0.0000 C   0  0  0  0  0  0  0  0  0  0  0  0
    5.6328    1.9443    0.0000 C   0  0  0  0  0  0  0  0  0  0  0  0
    6.3062    1.2050    0.0000 C   0  0  0  0  0  0  0  0  0  0  0  0
    7.2831    1.4186    0.0000 N   0  0  0  0  0  0  0  0  0  0  0  0
    7.5866    2.3715    0.0000 C   0  0  0  0  0  0  0  0  0  0  0  0
    6.9132    3.1107    0.0000 O   0  0  0  0  0  0  0  0  0  0  0  0
    8.5636    2.5850    0.0000 C   0  0  0  0  0  0  0  0  0  0  0  0
    4.6515    1.7267    0.0000 C   0  0  0  0  0  0  0  0  0  0  0  0
  1  2  1  0
  2  3  1  0
  3  8  2  0
  3  4  1  0
  4  5  2  0
  5  6  1  0
  6  7  2  0
  7 21  1  0
  7  8  1  0
  8  9  1  0
  9 10  1  0
 10 11  1  0
 11 12  2  0
 11 13  2  0
 11 14  1  0
 14 19  1  0
 14 15  2  0
 15 16  1  0
 16 17  2  0
 17 18  1  0
 17 19  1  0
  9 20  2  0
 20 21  1  0
 21 22  1  0
 22 23  1  0
 23 33  1  0
 23 24  2  0
 24 25  1  0
 25 26  2  0
 26 27  1  0
 27 28  1  0
 28 29  1  0
 29 30  1  0
 30 31  2  0
 30 32  1  0
 27 33  2  0
M  END
>  <SMILES>  (306) 
COc1cccc2c1c(NS(=O)(=O)c1ccc(Cl)s1)nn2Cc1cccc(CNC(C)=O)c1

>  <CollectionName>  (306) 
chembl

>  <LOG PLASMA PROTEIN BINDING (RAT) (% unbound)>  (306) 
-0.552841968658

>  <Internal ID>  (306) 


>  <Source>  (306) 
AstraZeneca

$$$$
CHEMBL1077896
     RDKit          2D

 20 21  0  0  1  0  0  0  0  0999 V2000
   -0.8660    4.5104    0.0000 C   0  0  0  0  0  0  0  0  0  0  0  0
   -0.8660    3.5104    0.0000 C   0  0  0  0  0  0  0  0  0  0  0  0
   -0.0000    3.0104    0.0000 C   0  0  0  0  0  0  0  0  0  0  0  0
   -0.0000    2.0104    0.0000 N   0  0  0  0  0  0  0  0  0  0  0  0
   -0.8675    1.5027    0.0000 C   0  0  0  0  0  0  0  0  0  0  0  0
   -0.8675    0.4975    0.0000 C   0  0  0  0  0  0  0  0  0  0  0  0
    0.0000    0.0000    0.0000 C   0  0  0  0  0  0  0  0  0  0  0  0
    0.8675    0.4975    0.0000 C   0  0  0  0  0  0  0  0  0  0  0  0
    0.8675    1.5027    0.0000 C   0  0  0  0  0  0  0  0  0  0  0  0
    1.7350    2.0001    0.0000 C   0  0  0  0  0  0  0  0  0  0  0  0
    2.5995    1.4976    0.0000 O   0  0  0  0  0  0  0  0  0  0  0  0
    1.7379    3.0001    0.0000 N   0  0  0  0  0  0  0  0  0  0  0  0
    2.6054    3.4976    0.0000 C   0  0  0  0  0  0  0  0  0  0  0  0
    3.4774    2.9976    0.0000 C   0  0  0  0  0  0  0  0  0  0  0  0
    3.4774    1.9976    0.0000 C   0  0  0  0  0  0  0  0  0  0  0  0
    4.3494    3.4976    0.0000 C   0  0  0  0  0  0  0  0  0  0  0  0
    4.3495    4.4976    0.0000 C   0  0  0  0  0  0  0  0  0  0  0  0
    3.4863    5.0027    0.0000 C   0  0  0  0  0  0  0  0  0  0  0  0
    2.6143    4.5027    0.0000 C   0  0  0  0  0  0  0  0  0  0  0  0
    1.7513    5.0078    0.0000 C   0  0  0  0  0  0  0  0  0  0  0  0
  1  2  1  0
  2  3  1  0
  3  4  1  0
  4  9  1  0
  4  5  1  0
  5  6  1  0
  6  7  1  0
  7  8  1  0
  8  9  1  0
  9 10  1  6
 10 11  2  0
 10 12  1  0
 12 13  1  0
 13 19  1  0
 13 14  2  0
 14 15  1  0
 14 16  1  0
 16 17  2  0
 17 18  1  0
 18 19  2  0
 19 20  1  0
M  END
>  <SMILES>  (307) 
CCCN1CCCC[C@H]1C(=O)Nc1c(C)cccc1C

>  <CollectionName>  (307) 
chembl

>  <LOG PLASMA PROTEIN BINDING (RAT) (% unbound)>  (307) 
1.70884563805

>  <Internal ID>  (307) 


>  <Source>  (307) 
AstraZeneca

$$$$
CHEMBL1078411
     RDKit          2D

 22 24  0  0  1  0  0  0  0  0999 V2000
    1.7319    2.9076    0.0000 N   0  0  0  0  0  0  0  0  0  0  0  0
    2.4741    2.2374    0.0000 C   0  0  0  0  0  0  0  0  0  0  0  0
    2.2648    1.2596    0.0000 C   0  0  0  0  0  0  0  0  0  0  0  0
    1.3133    0.9519    0.0000 C   0  0  0  0  0  0  0  0  0  0  0  0
    1.0015    0.0000    0.0000 C   0  0  0  0  0  0  0  0  0  0  0  0
    0.0000    0.0000    0.0000 C   0  0  0  0  0  0  0  0  0  0  0  0
   -0.3065    0.9519    0.0000 C   0  0  0  0  0  0  0  0  0  0  0  0
    0.5008    1.5428    0.0000 S   0  0  0  0  0  0  0  0  0  0  0  0
    3.4256    2.5451    0.0000 C   0  0  0  0  0  0  0  0  0  0  0  0
    4.1678    1.8749    0.0000 O   0  0  0  0  0  0  0  0  0  0  0  0
    3.6349    3.5229    0.0000 N   0  0  0  0  0  0  0  0  0  0  0  0
    4.5864    3.8306    0.0000 C   0  0  0  0  0  0  0  0  0  0  0  0
    5.3759    4.4474    0.0000 C   0  0  0  0  0  0  0  0  0  0  0  0
    4.4491    4.8230    0.0000 C   0  0  0  0  0  0  0  0  0  0  0  0
    3.8347    5.6120    0.0000 C   0  0  0  0  0  0  0  0  0  0  0  0
    2.8395    5.4708    0.0000 C   0  0  0  0  0  0  0  0  0  0  0  0
    2.2250    6.2598    0.0000 C   0  0  0  0  0  0  0  0  0  0  0  0
    2.5957    7.1886    0.0000 C   0  0  0  0  0  0  0  0  0  0  0  0
    3.5909    7.3298    0.0000 C   0  0  0  0  0  0  0  0  0  0  0  0
    4.2155    6.5422    0.0000 C   0  0  0  0  0  0  0  0  0  0  0  0
    5.0553    2.9473    0.0000 C   0  0  0  0  0  0  0  0  0  0  0  0
    5.5241    2.0640    0.0000 N   0  0  0  0  0  0  0  0  0  0  0  0
  2  1  1  6
  2  3  1  0
  3  4  1  0
  4  8  1  0
  4  5  2  0
  5  6  1  0
  6  7  2  0
  7  8  1  0
  2  9  1  0
  9 10  2  0
  9 11  1  0
 12 11  1  0
 12 14  1  0
 12 13  1  0
 13 14  1  0
 14 15  1  1
 15 20  1  0
 15 16  2  0
 16 17  1  0
 17 18  2  0
 18 19  1  0
 19 20  2  0
 12 21  1  6
 21 22  3  0
M  END
>  <SMILES>  (308) 
N#C[C@@]1(NC(=O)[C@@H](N)Cc2cccs2)C[C@@H]1c1ccccc1

>  <CollectionName>  (308) 
chembl

>  <LOG PLASMA PROTEIN BINDING (RAT) (% unbound)>  (308) 
1.53681086599

>  <Internal ID>  (308) 


>  <Source>  (308) 
AstraZeneca

$$$$
CHEMBL1088752
     RDKit          2D

 28 30  0  0  0  0  0  0  0  0999 V2000
    2.5937    0.4951    0.0000 C   0  0  0  0  0  0  0  0  0  0  0  0
    2.5981    1.4951    0.0000 C   0  0  0  0  0  0  0  0  0  0  0  0
    3.4701    1.9951    0.0000 C   0  0  0  0  0  0  0  0  0  0  0  0
    4.3332    1.4900    0.0000 F   0  0  0  0  0  0  0  0  0  0  0  0
    3.4790    3.0002    0.0000 C   0  0  0  0  0  0  0  0  0  0  0  0
    2.6071    3.5002    0.0000 C   0  0  0  0  0  0  0  0  0  0  0  0
    1.7350    3.0002    0.0000 C   0  0  0  0  0  0  0  0  0  0  0  0
    1.7350    2.0001    0.0000 C   0  0  0  0  0  0  0  0  0  0  0  0
    0.8675    1.5027    0.0000 C   0  0  0  0  0  0  0  0  0  0  0  0
    0.8675    0.4975    0.0000 C   0  0  0  0  0  0  0  0  0  0  0  0
    0.0000    0.0000    0.0000 C   0  0  0  0  0  0  0  0  0  0  0  0
   -0.8675    0.4975    0.0000 C   0  0  0  0  0  0  0  0  0  0  0  0
   -0.8675    1.5027    0.0000 C   0  0  0  0  0  0  0  0  0  0  0  0
    0.0000    2.0104    0.0000 N   0  0  0  0  0  0  0  0  0  0  0  0
   -1.7328   -0.0038    0.0000 C   0  0  0  0  0  0  0  0  0  0  0  0
   -1.7313   -1.0038    0.0000 O   0  0  0  0  0  0  0  0  0  0  0  0
   -2.5995    0.4950    0.0000 N   0  0  0  0  0  0  0  0  0  0  0  0
   -3.4648   -0.0063    0.0000 C   0  0  0  0  0  0  0  0  0  0  0  0
   -4.3316    0.4925    0.0000 C   0  0  0  0  0  0  0  0  0  0  0  0
   -5.1983    0.9912    0.0000 C   0  0  0  0  0  0  0  0  0  0  0  0
   -3.8329    1.3592    0.0000 C   0  0  0  0  0  0  0  0  0  0  0  0
   -4.8303   -0.3743    0.0000 C   0  0  0  0  0  0  0  0  0  0  0  0
    2.6071    4.5002    0.0000 C   0  0  0  0  0  0  0  0  0  0  0  0
    3.4731    5.0002    0.0000 O   0  0  0  0  0  0  0  0  0  0  0  0
    1.7410    5.0002    0.0000 N   0  0  0  0  0  0  0  0  0  0  0  0
    1.7410    6.0002    0.0000 C   0  0  0  0  0  0  0  0  0  0  0  0
    2.2410    6.8684    0.0000 C   0  0  0  0  0  0  0  0  0  0  0  0
    1.2410    6.8684    0.0000 C   0  0  0  0  0  0  0  0  0  0  0  0
  1  2  1  0
  2  8  2  0
  2  3  1  0
  3  4  1  0
  3  5  2  0
  5  6  1  0
  6  7  2  0
  7  8  1  0
  8  9  1  0
  9 14  1  0
  9 10  2  0
 10 11  1  0
 11 12  2  0
 12 13  1  0
 13 14  2  0
 12 15  1  0
 15 16  2  0
 15 17  1  0
 17 18  1  0
 18 19  1  0
 19 20  1  0
 19 21  1  0
 19 22  1  0
  6 23  1  0
 23 24  2  0
 23 25  1  0
 25 26  1  0
 26 28  1  0
 26 27  1  0
 27 28  1  0
M  END
>  <SMILES>  (309) 
Cc1c(F)cc(C(=O)NC2CC2)cc1-c1ccc(C(=O)NCC(C)(C)C)cn1

>  <CollectionName>  (309) 
chembl

>  <LOG PLASMA PROTEIN BINDING (RAT) (% unbound)>  (309) 
0.912753303671

>  <Internal ID>  (309) 


>  <Source>  (309) 
AstraZeneca

$$$$
CHEMBL809
     RDKit          2D

 20 22  0  0  1  0  0  0  0  0999 V2000
    3.4632    3.0147    0.0000 C   0  0  0  0  0  0  0  0  0  0  0  0
    2.5985    2.5124    0.0000 N   0  0  0  0  0  0  0  0  0  0  0  0
    2.6012    1.5124    0.0000 C   0  0  0  0  0  0  0  0  0  0  0  0
    3.4735    1.0079    0.0000 C   0  0  0  0  0  0  0  0  0  0  0  0
    3.4748    0.0022    0.0000 C   0  0  0  0  0  0  0  0  0  0  0  0
    2.6038   -0.4989    0.0000 C   0  0  0  0  0  0  0  0  0  0  0  0
    2.6037   -1.4989    0.0000 C   0  0  0  0  0  0  0  0  0  0  0  0
    1.7316   -1.9988    0.0000 C   0  0  0  0  0  0  0  0  0  0  0  0
    1.7314   -2.9989    0.0000 C   0  0  0  0  0  0  0  0  0  0  0  0
    2.5945   -3.5040    0.0000 C   0  0  0  0  0  0  0  0  0  0  0  0
    2.5900   -4.5040    0.0000 Cl  0  0  0  0  0  0  0  0  0  0  0  0
    3.4666   -3.0041    0.0000 C   0  0  0  0  0  0  0  0  0  0  0  0
    4.3296   -3.5093    0.0000 Cl  0  0  0  0  0  0  0  0  0  0  0  0
    3.4756   -1.9990    0.0000 C   0  0  0  0  0  0  0  0  0  0  0  0
    1.7371    0.0000    0.0000 C   0  0  0  0  0  0  0  0  0  0  0  0
    0.8679   -0.4978    0.0000 C   0  0  0  0  0  0  0  0  0  0  0  0
    0.0000    0.0000    0.0000 C   0  0  0  0  0  0  0  0  0  0  0  0
    0.0000    1.0057    0.0000 C   0  0  0  0  0  0  0  0  0  0  0  0
    0.8679    1.5135    0.0000 C   0  0  0  0  0  0  0  0  0  0  0  0
    1.7358    1.0057    0.0000 C   0  0  0  0  0  0  0  0  0  0  0  0
  1  2  1  0
  3  2  1  1
  3 20  1  0
  3  4  1  0
  4  5  1  0
  5  6  1  0
  6  7  1  1
  7 14  1  0
  7  8  2  0
  8  9  1  0
  9 10  2  0
 10 11  1  0
 10 12  1  0
 12 13  1  0
 12 14  2  0
  6 15  1  0
 15 20  2  0
 15 16  1  0
 16 17  2  0
 17 18  1  0
 18 19  2  0
 19 20  1  0
M  END
>  <SMILES>  (310) 
CN[C@H]1CC[C@@H](c2ccc(Cl)c(Cl)c2)c2ccccc21

>  <CollectionName>  (310) 
chembl

>  <LOG PLASMA PROTEIN BINDING (RAT) (% unbound)>  (310) 
0.301029995664

>  <Internal ID>  (310) 


>  <Source>  (310) 
AstraZeneca

$$$$
CHEMBL257178
     RDKit          2D

 31 33  0  0  0  0  0  0  0  0999 V2000
    7.2909    0.4982    0.0000 F   0  0  0  0  0  0  0  0  0  0  0  0
    6.2910    0.5026    0.0000 C   0  0  0  0  0  0  0  0  0  0  0  0
    5.7871   -0.3672    0.0000 C   0  0  0  0  0  0  0  0  0  0  0  0
    4.7871   -0.3629    0.0000 C   0  0  0  0  0  0  0  0  0  0  0  0
    4.2858    0.5024    0.0000 C   0  0  0  0  0  0  0  0  0  0  0  0
    4.7896    1.3722    0.0000 C   0  0  0  0  0  0  0  0  0  0  0  0
    5.7947    1.3767    0.0000 C   0  0  0  0  0  0  0  0  0  0  0  0
    3.2858    0.5023    0.0000 C   0  0  0  0  0  0  0  0  0  0  0  0
    2.6938    1.3169    0.0000 N   0  0  0  0  0  0  0  0  0  0  0  0
    1.7360    1.0058    0.0000 C   0  0  0  0  0  0  0  0  0  0  0  0
    0.8680    1.5138    0.0000 C   0  0  0  0  0  0  0  0  0  0  0  0
    0.0000    1.0058    0.0000 C   0  0  0  0  0  0  0  0  0  0  0  0
    0.0000    0.0000    0.0000 C   0  0  0  0  0  0  0  0  0  0  0  0
    0.8680   -0.4978    0.0000 C   0  0  0  0  0  0  0  0  0  0  0  0
    1.7360   -0.0012    0.0000 C   0  0  0  0  0  0  0  0  0  0  0  0
    2.6938   -0.3125    0.0000 C   0  0  0  0  0  0  0  0  0  0  0  0
    3.0028   -1.2636    0.0000 C   0  0  0  0  0  0  0  0  0  0  0  0
    2.3336   -2.0067    0.0000 C   0  0  0  0  0  0  0  0  0  0  0  0
    2.6426   -2.9578    0.0000 C   0  0  0  0  0  0  0  0  0  0  0  0
    1.9734   -3.7009    0.0000 C   0  0  0  0  0  0  0  0  0  0  0  0
    0.9953   -3.4929    0.0000 O   0  0  0  0  0  0  0  0  0  0  0  0
    2.2824   -4.6519    0.0000 N   0  0  0  0  0  0  0  0  0  0  0  0
    1.6132   -5.3951    0.0000 S   0  0  0  0  0  0  0  0  0  0  0  0
    0.8701   -4.7259    0.0000 O   0  0  0  0  0  0  0  0  0  0  0  0
    2.3563   -6.0642    0.0000 O   0  0  0  0  0  0  0  0  0  0  0  0
    0.9440   -6.1382    0.0000 C   0  0  0  0  0  0  0  0  0  0  0  0
    0.2749   -6.8813    0.0000 F   0  0  0  0  0  0  0  0  0  0  0  0
    0.2009   -5.4690    0.0000 F   0  0  0  0  0  0  0  0  0  0  0  0
    1.6872   -6.8073    0.0000 F   0  0  0  0  0  0  0  0  0  0  0  0
   -0.8653   -0.5013    0.0000 C   0  0  0  0  0  0  0  0  0  0  0  0
   -1.7306   -1.0025    0.0000 N   0  0  0  0  0  0  0  0  0  0  0  0
  1  2  1  0
  2  7  2  0
  2  3  1  0
  3  4  2  0
  4  5  1  0
  5  6  2  0
  6  7  1  0
  5  8  1  0
  8 16  2  0
  8  9  1  0
  9 10  1  0
 10 15  2  0
 10 11  1  0
 11 12  2  0
 12 13  1  0
 13 14  2  0
 14 15  1  0
 15 16  1  0
 16 17  1  0
 17 18  1  0
 18 19  1  0
 19 20  1  0
 20 21  2  0
 20 22  1  0
 22 23  1  0
 23 24  2  0
 23 25  2  0
 23 26  1  0
 26 27  1  0
 26 28  1  0
 26 29  1  0
 13 30  1  0
 30 31  3  0
M  END
>  <SMILES>  (311) 
N#Cc1ccc2[nH]c(-c3ccc(F)cc3)c(CCCC(=O)NS(=O)(=O)C(F)(F)F)c2c1

>  <CollectionName>  (311) 
chembl

>  <LOG PLASMA PROTEIN BINDING (RAT) (% unbound)>  (311) 
0.820201459486

>  <Internal ID>  (311) 


>  <Source>  (311) 
AstraZeneca

$$$$
CHEMBL601719
     RDKit          2D

 30 33  0  0  1  0  0  0  0  0999 V2000
    2.6010    1.4950    0.0000 C   0  0  0  0  0  0  0  0  0  0  0  0
    2.5995    0.4950    0.0000 C   0  0  0  0  0  0  0  0  0  0  0  0
    1.7328   -0.0038    0.0000 O   0  0  0  0  0  0  0  0  0  0  0  0
    0.8675    0.4975    0.0000 C   0  0  0  0  0  0  0  0  0  0  0  0
    0.0000    0.0000    0.0000 C   0  0  0  0  0  0  0  0  0  0  0  0
   -0.8675    0.4975    0.0000 C   0  0  0  0  0  0  0  0  0  0  0  0
   -0.8675    1.5027    0.0000 C   0  0  0  0  0  0  0  0  0  0  0  0
   -0.0000    2.0104    0.0000 N   0  0  0  0  0  0  0  0  0  0  0  0
    0.8675    1.5027    0.0000 C   0  0  0  0  0  0  0  0  0  0  0  0
    1.7350    2.0001    0.0000 N   0  0  0  0  0  0  0  0  0  0  0  0
   -1.7328   -0.0038    0.0000 C   0  0  0  0  0  0  0  0  0  0  0  0
   -1.8372   -0.9983    0.0000 C   0  0  0  0  0  0  0  0  0  0  0  0
   -2.8145   -1.2125    0.0000 N   0  0  0  0  0  0  0  0  0  0  0  0
   -3.3188   -0.3436    0.0000 N   0  0  0  0  0  0  0  0  0  0  0  0
   -2.6488    0.4010    0.0000 C   0  0  0  0  0  0  0  0  0  0  0  0
   -4.3135   -0.2404    0.0000 C   0  0  0  0  0  0  0  0  0  0  0  0
   -4.8978   -1.0520    0.0000 C   0  0  0  0  0  0  0  0  0  0  0  0
   -5.8976   -0.9482    0.0000 C   0  0  0  0  0  0  0  0  0  0  0  0
   -6.3131   -0.0330    0.0000 N   0  0  0  0  0  0  0  0  0  0  0  0
   -5.7186    0.7775    0.0000 C   0  0  0  0  0  0  0  0  0  0  0  0
   -4.7188    0.6738    0.0000 C   0  0  0  0  0  0  0  0  0  0  0  0
    3.4648   -0.0063    0.0000 C   0  0  0  0  0  0  0  0  0  0  0  0
    4.3346    0.4976    0.0000 C   0  0  0  0  0  0  0  0  0  0  0  0
    4.3346    1.4976    0.0000 Cl  0  0  0  0  0  0  0  0  0  0  0  0
    5.2000   -0.0036    0.0000 C   0  0  0  0  0  0  0  0  0  0  0  0
    5.2044   -1.0036    0.0000 C   0  0  0  0  0  0  0  0  0  0  0  0
    4.3346   -1.5075    0.0000 C   0  0  0  0  0  0  0  0  0  0  0  0
    4.3391   -2.5075    0.0000 F   0  0  0  0  0  0  0  0  0  0  0  0
    3.4604   -1.0114    0.0000 C   0  0  0  0  0  0  0  0  0  0  0  0
    2.5952   -1.5127    0.0000 Cl  0  0  0  0  0  0  0  0  0  0  0  0
  2  1  1  6
  2  3  1  0
  3  4  1  0
  4  9  1  0
  4  5  2  0
  5  6  1  0
  6  7  2  0
  7  8  1  0
  8  9  2  0
  9 10  1  0
  6 11  1  0
 11 15  2  0
 11 12  1  0
 12 13  2  0
 13 14  1  0
 14 15  1  0
 14 16  1  0
 16 21  1  0
 16 17  1  0
 17 18  1  0
 18 19  1  0
 19 20  1  0
 20 21  1  0
  2 22  1  0
 22 29  1  0
 22 23  2  0
 23 24  1  0
 23 25  1  0
 25 26  2  0
 26 27  1  0
 27 28  1  0
 27 29  2  0
 29 30  1  0
M  END
>  <SMILES>  (312) 
C[C@@H](Oc1cc(-c2cnn(C3CCNCC3)c2)cnc1N)c1c(Cl)ccc(F)c1Cl

>  <CollectionName>  (312) 
chembl

>  <LOG PLASMA PROTEIN BINDING (RAT) (% unbound)>  (312) 
0.650307523132

>  <Internal ID>  (312) 


>  <Source>  (312) 
AstraZeneca

$$$$
CHEMBL601882
     RDKit          2D

 23 25  0  0  0  0  0  0  0  0999 V2000
   -1.9888    0.2117    0.0000 C   0  0  0  0  0  0  0  0  0  0  0  0
   -1.5832   -0.7024    0.0000 N   0  0  0  0  0  0  0  0  0  0  0  0
   -0.5889   -0.8082    0.0000 C   0  0  0  0  0  0  0  0  0  0  0  0
   -0.1833   -1.7223    0.0000 O   0  0  0  0  0  0  0  0  0  0  0  0
    0.0000    0.0000    0.0000 C   0  0  0  0  0  0  0  0  0  0  0  0
   -0.3065    0.9519    0.0000 C   0  0  0  0  0  0  0  0  0  0  0  0
   -1.2577    1.2605    0.0000 C   0  0  0  0  0  0  0  0  0  0  0  0
    0.5008    1.5428    0.0000 O   0  0  0  0  0  0  0  0  0  0  0  0
    1.3133    0.9519    0.0000 N   0  0  0  0  0  0  0  0  0  0  0  0
    1.0015   -0.0000    0.0000 C   0  0  0  0  0  0  0  0  0  0  0  0
    1.5883   -0.8097    0.0000 C   0  0  0  0  0  0  0  0  0  0  0  0
    2.5878   -0.7029    0.0000 C   0  0  0  0  0  0  0  0  0  0  0  0
    3.1747   -1.5126    0.0000 C   0  0  0  0  0  0  0  0  0  0  0  0
    2.7722   -2.4281    0.0000 C   0  0  0  0  0  0  0  0  0  0  0  0
    1.7727   -2.5349    0.0000 C   0  0  0  0  0  0  0  0  0  0  0  0
    1.1757   -1.7263    0.0000 C   0  0  0  0  0  0  0  0  0  0  0  0
   -2.1721   -1.5106    0.0000 C   0  0  0  0  0  0  0  0  0  0  0  0
   -1.7679   -2.4253    0.0000 C   0  0  0  0  0  0  0  0  0  0  0  0
   -2.3532   -3.2361    0.0000 C   0  0  0  0  0  0  0  0  0  0  0  0
   -3.3529   -3.1312    0.0000 C   0  0  0  0  0  0  0  0  0  0  0  0
   -3.9382   -3.9420    0.0000 Cl  0  0  0  0  0  0  0  0  0  0  0  0
   -3.7673   -2.2154    0.0000 C   0  0  0  0  0  0  0  0  0  0  0  0
   -3.1718   -1.4057    0.0000 C   0  0  0  0  0  0  0  0  0  0  0  0
  1  2  1  0
  2  3  1  0
  3  4  2  0
  3  5  1  0
  5 10  1  0
  5  6  2  0
  6  7  1  0
  6  8  1  0
  8  9  1  0
  9 10  2  0
 10 11  1  0
 11 16  1  0
 11 12  2  0
 12 13  1  0
 13 14  2  0
 14 15  1  0
 15 16  2  0
  2 17  1  0
 17 23  1  0
 17 18  2  0
 18 19  1  0
 19 20  2  0
 20 21  1  0
 20 22  1  0
 22 23  2  0
M  END
>  <SMILES>  (313) 
Cc1onc(-c2ccccc2)c1C(=O)N(C)c1ccc(Cl)cc1

>  <CollectionName>  (313) 
chembl

>  <LOG PLASMA PROTEIN BINDING (RAT) (% unbound)>  (313) 
0.876217840592

>  <Internal ID>  (313) 


>  <Source>  (313) 
AstraZeneca

$$$$
CHEMBL1416617
     RDKit          2D

 19 21  0  0  0  0  0  0  0  0999 V2000
   -1.2577    1.2605    0.0000 C   0  0  0  0  0  0  0  0  0  0  0  0
   -0.3065    0.9519    0.0000 C   0  0  0  0  0  0  0  0  0  0  0  0
    0.5008    1.5428    0.0000 N   0  0  0  0  0  0  0  0  0  0  0  0
    1.3133    0.9519    0.0000 N   0  0  0  0  0  0  0  0  0  0  0  0
    1.0015   -0.0000    0.0000 C   0  0  0  0  0  0  0  0  0  0  0  0
    1.5883   -0.8097    0.0000 N   0  0  0  0  0  0  0  0  0  0  0  0
    0.0000    0.0000    0.0000 C   0  0  0  0  0  0  0  0  0  0  0  0
   -0.5889   -0.8082    0.0000 C   0  0  0  0  0  0  0  0  0  0  0  0
   -0.1785   -1.7259    0.0000 C   0  0  0  0  0  0  0  0  0  0  0  0
   -0.7674   -2.5342    0.0000 C   0  0  0  0  0  0  0  0  0  0  0  0
   -1.7624   -2.4341    0.0000 C   0  0  0  0  0  0  0  0  0  0  0  0
   -2.1727   -1.5165    0.0000 C   0  0  0  0  0  0  0  0  0  0  0  0
   -1.5880   -0.6989    0.0000 C   0  0  0  0  0  0  0  0  0  0  0  0
    2.2648    1.2596    0.0000 C   0  0  0  0  0  0  0  0  0  0  0  0
    2.4723    2.2431    0.0000 C   0  0  0  0  0  0  0  0  0  0  0  0
    3.4238    2.5508    0.0000 C   0  0  0  0  0  0  0  0  0  0  0  0
    4.1699    1.8850    0.0000 C   0  0  0  0  0  0  0  0  0  0  0  0
    3.9624    0.9014    0.0000 C   0  0  0  0  0  0  0  0  0  0  0  0
    3.0088    0.5837    0.0000 C   0  0  0  0  0  0  0  0  0  0  0  0
  1  2  1  0
  2  7  1  0
  2  3  2  0
  3  4  1  0
  4  5  1  0
  5  6  1  0
  5  7  2  0
  7  8  1  0
  8 13  1  0
  8  9  2  0
  9 10  1  0
 10 11  2  0
 11 12  1  0
 12 13  2  0
  4 14  1  0
 14 19  1  0
 14 15  2  0
 15 16  1  0
 16 17  2  0
 17 18  1  0
 18 19  2  0
M  END
>  <SMILES>  (314) 
Cc1nn(-c2ccccc2)c(N)c1-c1ccccc1

>  <CollectionName>  (314) 
chembl

>  <LOG PLASMA PROTEIN BINDING (RAT) (% unbound)>  (314) 
0.65991620007

>  <Internal ID>  (314) 


>  <Source>  (314) 
AstraZeneca

$$$$
CHEMBL31354
     RDKit          2D

 31 34  0  0  0  0  0  0  0  0999 V2000
    4.3302   -2.5153    0.0000 C   0  0  0  0  0  0  0  0  0  0  0  0
    5.1940   -3.0192    0.0000 O   0  0  0  0  0  0  0  0  0  0  0  0
    6.0623   -2.5230    0.0000 C   0  0  0  0  0  0  0  0  0  0  0  0
    6.9290   -3.0320    0.0000 C   0  0  0  0  0  0  0  0  0  0  0  0
    7.7973   -2.5256    0.0000 C   0  0  0  0  0  0  0  0  0  0  0  0
    7.7988   -1.5204    0.0000 C   0  0  0  0  0  0  0  0  0  0  0  0
    6.9320   -1.0216    0.0000 C   0  0  0  0  0  0  0  0  0  0  0  0
    6.0638   -1.5178    0.0000 C   0  0  0  0  0  0  0  0  0  0  0  0
    5.1992   -1.0153    0.0000 N   0  0  0  0  0  0  0  0  0  0  0  0
    5.1963   -0.0102    0.0000 C   0  0  0  0  0  0  0  0  0  0  0  0
    4.3272    0.4950    0.0000 C   0  0  0  0  0  0  0  0  0  0  0  0
    3.4611   -0.0050    0.0000 N   0  0  0  0  0  0  0  0  0  0  0  0
    2.5966    0.4976    0.0000 C   0  0  0  0  0  0  0  0  0  0  0  0
    2.5995    1.4976    0.0000 C   0  0  0  0  0  0  0  0  0  0  0  0
    1.7350    2.0001    0.0000 N   0  0  0  0  0  0  0  0  0  0  0  0
    1.7379    3.0001    0.0000 C   0  0  0  0  0  0  0  0  0  0  0  0
    0.8734    3.5027    0.0000 O   0  0  0  0  0  0  0  0  0  0  0  0
    2.6054    3.4976    0.0000 C   0  0  0  0  0  0  0  0  0  0  0  0
    2.6054    4.5028    0.0000 C   0  0  0  0  0  0  0  0  0  0  0  0
    3.4729    5.0003    0.0000 C   0  0  0  0  0  0  0  0  0  0  0  0
    4.3404    4.5028    0.0000 C   0  0  0  0  0  0  0  0  0  0  0  0
    4.3404    3.4976    0.0000 C   0  0  0  0  0  0  0  0  0  0  0  0
    3.4729    2.9899    0.0000 C   0  0  0  0  0  0  0  0  0  0  0  0
    0.8675    1.5027    0.0000 C   0  0  0  0  0  0  0  0  0  0  0  0
    0.8675    0.4975    0.0000 C   0  0  0  0  0  0  0  0  0  0  0  0
    0.0000    0.0000    0.0000 C   0  0  0  0  0  0  0  0  0  0  0  0
   -0.8675    0.4975    0.0000 C   0  0  0  0  0  0  0  0  0  0  0  0
   -0.8675    1.5027    0.0000 C   0  0  0  0  0  0  0  0  0  0  0  0
   -0.0000    2.0104    0.0000 N   0  0  0  0  0  0  0  0  0  0  0  0
    3.4553   -1.0050    0.0000 C   0  0  0  0  0  0  0  0  0  0  0  0
    4.3243   -1.5101    0.0000 C   0  0  0  0  0  0  0  0  0  0  0  0
  1  2  1  0
  2  3  1  0
  3  8  2  0
  3  4  1  0
  4  5  2  0
  5  6  1  0
  6  7  2  0
  7  8  1  0
  8  9  1  0
  9 31  1  0
  9 10  1  0
 10 11  1  0
 11 12  1  0
 12 13  1  0
 13 14  1  0
 14 15  1  0
 15 16  1  0
 16 17  2  0
 16 18  1  0
 18 23  1  0
 18 19  1  0
 19 20  1  0
 20 21  1  0
 21 22  1  0
 22 23  1  0
 15 24  1  0
 24 29  1  0
 24 25  2  0
 25 26  1  0
 26 27  2  0
 27 28  1  0
 28 29  2  0
 12 30  1  0
 30 31  1  0
M  END
>  <SMILES>  (315) 
COc1ccccc1N1CCN(CCN(C(=O)C2CCCCC2)c2ccccn2)CC1

>  <CollectionName>  (315) 
chembl

>  <LOG PLASMA PROTEIN BINDING (RAT) (% unbound)>  (315) 
1.31868926995

>  <Internal ID>  (315) 


>  <Source>  (315) 
AstraZeneca

$$$$
CHEMBL239336
     RDKit          2D

 23 25  0  0  1  0  0  0  0  0999 V2000
    0.8675   -1.4975    0.0000 C   0  0  0  0  0  0  0  0  0  0  0  0
    0.8675   -0.4975    0.0000 C   0  0  0  0  0  0  0  0  0  0  0  0
    0.0000    0.0000    0.0000 C   0  0  0  0  0  0  0  0  0  0  0  0
    0.0000    1.0052    0.0000 C   0  0  0  0  0  0  0  0  0  0  0  0
    0.8675    1.5129    0.0000 N   0  0  0  0  0  0  0  0  0  0  0  0
    1.7350    1.0052    0.0000 C   0  0  0  0  0  0  0  0  0  0  0  0
    2.6025    1.5026    0.0000 O   0  0  0  0  0  0  0  0  0  0  0  0
    1.7350    0.0000    0.0000 N   0  0  0  0  0  0  0  0  0  0  0  0
   -0.8675    1.5026    0.0000 C   0  0  0  0  0  0  0  0  0  0  0  0
   -1.7817    1.0934    0.0000 C   0  0  0  0  0  0  0  0  0  0  0  0
   -2.4551    1.8347    0.0000 C   0  0  0  0  0  0  0  0  0  0  0  0
   -1.9566    2.7016    0.0000 C   0  0  0  0  0  0  0  0  0  0  0  0
   -0.9764    2.5014    0.0000 S   0  0  0  0  0  0  0  0  0  0  0  0
   -0.8653   -0.5013    0.0000 C   0  0  0  0  0  0  0  0  0  0  0  0
   -0.8638   -1.5013    0.0000 O   0  0  0  0  0  0  0  0  0  0  0  0
   -1.7320   -0.0025    0.0000 O   0  0  0  0  0  0  0  0  0  0  0  0
   -2.5973   -0.5038    0.0000 C   0  0  0  0  0  0  0  0  0  0  0  0
   -3.4641   -0.0050    0.0000 C   0  0  0  0  0  0  0  0  0  0  0  0
   -4.3324   -0.5115    0.0000 C   0  0  0  0  0  0  0  0  0  0  0  0
   -5.1992   -0.0127    0.0000 C   0  0  0  0  0  0  0  0  0  0  0  0
   -5.2065    0.9873    0.0000 C   0  0  0  0  0  0  0  0  0  0  0  0
   -4.3382    1.4937    0.0000 C   0  0  0  0  0  0  0  0  0  0  0  0
   -3.4626    1.0001    0.0000 C   0  0  0  0  0  0  0  0  0  0  0  0
  1  2  1  0
  2  8  1  0
  2  3  2  0
  3  4  1  0
  4  5  1  0
  5  6  1  0
  6  7  2  0
  6  8  1  0
  4  9  1  0
  9 13  1  0
  9 10  2  0
 10 11  1  0
 11 12  2  0
 12 13  1  0
  3 14  1  0
 14 15  2  0
 14 16  1  0
 16 17  1  0
 17 18  1  0
 18 23  1  0
 18 19  2  0
 19 20  1  0
 20 21  2  0
 21 22  1  0
 22 23  2  0
M  END
>  <SMILES>  (316) 
CC1=C(C(=O)OCc2ccccc2)C(c2cccs2)NC(=O)N1

>  <CollectionName>  (316) 
chembl

>  <LOG PLASMA PROTEIN BINDING (RAT) (% unbound)>  (316) 
0.232996110392

>  <Internal ID>  (316) 


>  <Source>  (316) 
AstraZeneca

$$$$
CHEMBL226646
     RDKit          2D

 27 30  0  0  0  0  0  0  0  0999 V2000
   -3.4472    1.7297    0.0000 C   0  0  0  0  0  0  0  0  0  0  0  0
   -2.4527    1.8354    0.0000 C   0  0  0  0  0  0  0  0  0  0  0  0
   -1.7789    1.0903    0.0000 O   0  0  0  0  0  0  0  0  0  0  0  0
   -0.8675    1.5026    0.0000 C   0  0  0  0  0  0  0  0  0  0  0  0
   -0.9719    2.4971    0.0000 N   0  0  0  0  0  0  0  0  0  0  0  0
   -1.9521    2.7028    0.0000 N   0  0  0  0  0  0  0  0  0  0  0  0
    0.0000    1.0052    0.0000 C   0  0  0  0  0  0  0  0  0  0  0  0
    0.0000    0.0000    0.0000 C   0  0  0  0  0  0  0  0  0  0  0  0
    0.8675   -0.4975    0.0000 C   0  0  0  0  0  0  0  0  0  0  0  0
    1.7350   -0.0000    0.0000 C   0  0  0  0  0  0  0  0  0  0  0  0
    1.7350    1.0052    0.0000 N   0  0  0  0  0  0  0  0  0  0  0  0
    0.8675    1.5129    0.0000 N   0  0  0  0  0  0  0  0  0  0  0  0
    2.6003   -0.5013    0.0000 N   0  0  0  0  0  0  0  0  0  0  0  0
    2.6048   -1.5064    0.0000 C   0  0  0  0  0  0  0  0  0  0  0  0
    3.4746   -2.0103    0.0000 C   0  0  0  0  0  0  0  0  0  0  0  0
    4.3399   -1.5090    0.0000 C   0  0  0  0  0  0  0  0  0  0  0  0
    4.3442   -0.5090    0.0000 C   0  0  0  0  0  0  0  0  0  0  0  0
    3.4745   -0.0051    0.0000 C   0  0  0  0  0  0  0  0  0  0  0  0
    5.2052   -2.0102    0.0000 O   0  0  0  0  0  0  0  0  0  0  0  0
    5.2037   -3.0102    0.0000 C   0  0  0  0  0  0  0  0  0  0  0  0
    4.3311   -3.5090    0.0000 C   0  0  0  0  0  0  0  0  0  0  0  0
    4.3385   -4.5141    0.0000 C   0  0  0  0  0  0  0  0  0  0  0  0
    3.4747   -5.0179    0.0000 F   0  0  0  0  0  0  0  0  0  0  0  0
    5.2098   -5.0154    0.0000 C   0  0  0  0  0  0  0  0  0  0  0  0
    6.0736   -4.5116    0.0000 C   0  0  0  0  0  0  0  0  0  0  0  0
    6.0750   -3.5115    0.0000 C   0  0  0  0  0  0  0  0  0  0  0  0
    6.9410   -3.0115    0.0000 Cl  0  0  0  0  0  0  0  0  0  0  0  0
  1  2  1  0
  2  6  2  0
  2  3  1  0
  3  4  1  0
  4  5  2  0
  5  6  1  0
  4  7  1  0
  7 12  1  0
  7  8  2  0
  8  9  1  0
  9 10  2  0
 10 11  1  0
 11 12  2  0
 10 13  1  0
 13 18  1  0
 13 14  1  0
 14 15  1  0
 15 16  1  0
 16 17  1  0
 17 18  1  0
 16 19  1  0
 19 20  1  0
 20 26  1  0
 20 21  2  0
 21 22  1  0
 22 23  1  0
 22 24  2  0
 24 25  1  0
 25 26  2  0
 26 27  1  0
M  END
>  <SMILES>  (317) 
Cc1nnc(-c2ccc(N3CCC(Oc4cc(F)ccc4Cl)CC3)nn2)o1

>  <CollectionName>  (317) 
chembl

>  <LOG PLASMA PROTEIN BINDING (RAT) (% unbound)>  (317) 
-0.0861861476163

>  <Internal ID>  (317) 


>  <Source>  (317) 
AstraZeneca

$$$$
CHEMBL570273
     RDKit          2D

 30 33  0  0  0  0  0  0  0  0999 V2000
    6.3051   -3.9653    0.0000 C   0  0  0  0  0  0  0  0  0  0  0  0
    7.3051   -3.9608    0.0000 C   0  0  0  0  0  0  0  0  0  0  0  0
    7.8090   -4.8306    0.0000 N   0  0  0  0  0  0  0  0  0  0  0  0
    8.8140   -4.8172    0.0000 C   0  0  0  0  0  0  0  0  0  0  0  0
    9.3102   -3.9430    0.0000 C   0  0  0  0  0  0  0  0  0  0  0  0
    8.8013   -3.0821    0.0000 C   0  0  0  0  0  0  0  0  0  0  0  0
    7.8012   -3.0866    0.0000 C   0  0  0  0  0  0  0  0  0  0  0  0
    7.2961   -2.2236    0.0000 C   0  0  0  0  0  0  0  0  0  0  0  0
    7.7909   -1.3546    0.0000 O   0  0  0  0  0  0  0  0  0  0  0  0
    6.2961   -2.2295    0.0000 N   0  0  0  0  0  0  0  0  0  0  0  0
    5.7910   -1.3665    0.0000 C   0  0  0  0  0  0  0  0  0  0  0  0
    6.2909   -0.4945    0.0000 C   0  0  0  0  0  0  0  0  0  0  0  0
    5.7858    0.3686    0.0000 C   0  0  0  0  0  0  0  0  0  0  0  0
    4.7858    0.3685    0.0000 C   0  0  0  0  0  0  0  0  0  0  0  0
    4.2844    1.2337    0.0000 Cl  0  0  0  0  0  0  0  0  0  0  0  0
    4.2858   -0.5035    0.0000 C   0  0  0  0  0  0  0  0  0  0  0  0
    4.7859   -1.3755    0.0000 C   0  0  0  0  0  0  0  0  0  0  0  0
    3.2858   -0.5036    0.0000 C   0  0  0  0  0  0  0  0  0  0  0  0
    2.6938   -1.3184    0.0000 N   0  0  0  0  0  0  0  0  0  0  0  0
    1.7360   -1.0071    0.0000 C   0  0  0  0  0  0  0  0  0  0  0  0
    0.8680   -1.5037    0.0000 C   0  0  0  0  0  0  0  0  0  0  0  0
    0.0000   -1.0058    0.0000 C   0  0  0  0  0  0  0  0  0  0  0  0
    0.0000    0.0000    0.0000 C   0  0  0  0  0  0  0  0  0  0  0  0
    0.8680    0.5079    0.0000 C   0  0  0  0  0  0  0  0  0  0  0  0
    1.7360   -0.0000    0.0000 C   0  0  0  0  0  0  0  0  0  0  0  0
    2.6938    0.3110    0.0000 N   0  0  0  0  0  0  0  0  0  0  0  0
    9.3230   -5.6780    0.0000 C   0  0  0  0  0  0  0  0  0  0  0  0
   10.1838   -5.1690    0.0000 F   0  0  0  0  0  0  0  0  0  0  0  0
    8.4622   -6.1869    0.0000 F   0  0  0  0  0  0  0  0  0  0  0  0
    9.8319   -6.5388    0.0000 F   0  0  0  0  0  0  0  0  0  0  0  0
  1  2  1  0
  2  7  2  0
  2  3  1  0
  3  4  2  0
  4  5  1  0
  5  6  2  0
  6  7  1  0
  7  8  1  0
  8  9  2  0
  8 10  1  0
 10 11  1  0
 11 17  1  0
 11 12  2  0
 12 13  1  0
 13 14  2  0
 14 15  1  0
 14 16  1  0
 16 17  2  0
 16 18  1  0
 18 26  1  0
 18 19  2  0
 19 20  1  0
 20 25  2  0
 20 21  1  0
 21 22  2  0
 22 23  1  0
 23 24  2  0
 24 25  1  0
 25 26  1  0
  4 27  1  0
 27 28  1  0
 27 29  1  0
 27 30  1  0
M  END
>  <SMILES>  (318) 
Cc1nc(C(F)(F)F)ccc1C(=O)Nc1ccc(Cl)c(-c2nc3ccccc3[nH]2)c1

>  <CollectionName>  (318) 
chembl

>  <LOG PLASMA PROTEIN BINDING (RAT) (% unbound)>  (318) 
0.976808337338

>  <Internal ID>  (318) 


>  <Source>  (318) 
AstraZeneca

$$$$
CHEMBL578194
     RDKit          2D

 27 30  0  0  1  0  0  0  0  0999 V2000
    2.5995    1.4976    0.0000 C   0  0  0  0  0  0  0  0  0  0  0  0
    1.7350    2.0001    0.0000 C   0  0  0  0  0  0  0  0  0  0  0  0
    1.7379    3.0001    0.0000 N   0  0  0  0  0  0  0  0  0  0  0  0
    2.6054    3.4976    0.0000 C   0  0  0  0  0  0  0  0  0  0  0  0
    3.4729    2.9899    0.0000 N   0  0  0  0  0  0  0  0  0  0  0  0
    4.3404    3.4976    0.0000 C   0  0  0  0  0  0  0  0  0  0  0  0
    5.2079    3.0001    0.0000 N   0  0  0  0  0  0  0  0  0  0  0  0
    5.2109    2.0001    0.0000 C   0  0  0  0  0  0  0  0  0  0  0  0
    4.4018    1.4125    0.0000 C   0  0  0  0  0  0  0  0  0  0  0  0
    4.7136    0.4608    0.0000 C   0  0  0  0  0  0  0  0  0  0  0  0
    5.7153    0.4609    0.0000 N   0  0  0  0  0  0  0  0  0  0  0  0
    6.0238    1.4170    0.0000 N   0  0  0  0  0  0  0  0  0  0  0  0
    4.1269   -0.3490    0.0000 C   0  0  0  0  0  0  0  0  0  0  0  0
    3.2126   -0.7587    0.0000 C   0  0  0  0  0  0  0  0  0  0  0  0
    4.0224   -1.3455    0.0000 C   0  0  0  0  0  0  0  0  0  0  0  0
    4.3404    4.5028    0.0000 C   0  0  0  0  0  0  0  0  0  0  0  0
    3.4729    5.0003    0.0000 N   0  0  0  0  0  0  0  0  0  0  0  0
    2.6054    4.5028    0.0000 C   0  0  0  0  0  0  0  0  0  0  0  0
    1.7401    5.0040    0.0000 C   0  0  0  0  0  0  0  0  0  0  0  0
    0.8748    5.5053    0.0000 N   0  0  0  0  0  0  0  0  0  0  0  0
    0.8675    1.5027    0.0000 C   0  0  0  0  0  0  0  0  0  0  0  0
    0.8675    0.4975    0.0000 C   0  0  0  0  0  0  0  0  0  0  0  0
    0.0000    0.0000    0.0000 C   0  0  0  0  0  0  0  0  0  0  0  0
   -0.8675    0.4975    0.0000 C   0  0  0  0  0  0  0  0  0  0  0  0
   -1.7328   -0.0038    0.0000 F   0  0  0  0  0  0  0  0  0  0  0  0
   -0.8675    1.5027    0.0000 C   0  0  0  0  0  0  0  0  0  0  0  0
    0.0000    2.0104    0.0000 N   0  0  0  0  0  0  0  0  0  0  0  0
  2  1  1  1
  2  3  1  0
  3  4  1  0
  4 18  1  0
  4  5  2  0
  5  6  1  0
  6  7  1  0
  7  8  1  0
  8 12  2  0
  8  9  1  0
  9 10  2  0
 10 11  1  0
 11 12  1  0
 10 13  1  0
 13 15  1  0
 13 14  1  0
 14 15  1  0
  6 16  2  0
 16 17  1  0
 17 18  2  0
 18 19  1  0
 19 20  3  0
  2 21  1  0
 21 27  1  0
 21 22  2  0
 22 23  1  0
 23 24  2  0
 24 25  1  0
 24 26  1  0
 26 27  2  0
M  END
>  <SMILES>  (319) 
C[C@H](Nc1nc(Nc2cc(C3CC3)[nH]n2)cnc1C#N)c1ccc(F)cn1

>  <CollectionName>  (319) 
chembl

>  <LOG PLASMA PROTEIN BINDING (RAT) (% unbound)>  (319) 
0.792391689498

>  <Internal ID>  (319) 


>  <Source>  (319) 
AstraZeneca

$$$$
CHEMBL578201
     RDKit          2D

 26 28  0  0  1  0  0  0  0  0999 V2000
    2.5995    1.4976    0.0000 C   0  0  0  0  0  0  0  0  0  0  0  0
    1.7350    2.0001    0.0000 C   0  0  0  0  0  0  0  0  0  0  0  0
    1.7379    3.0001    0.0000 N   0  0  0  0  0  0  0  0  0  0  0  0
    2.6054    3.4976    0.0000 C   0  0  0  0  0  0  0  0  0  0  0  0
    3.4729    2.9899    0.0000 N   0  0  0  0  0  0  0  0  0  0  0  0
    4.3404    3.4976    0.0000 C   0  0  0  0  0  0  0  0  0  0  0  0
    5.2079    3.0001    0.0000 N   0  0  0  0  0  0  0  0  0  0  0  0
    5.2109    2.0001    0.0000 C   0  0  0  0  0  0  0  0  0  0  0  0
    4.4018    1.4125    0.0000 C   0  0  0  0  0  0  0  0  0  0  0  0
    4.7136    0.4608    0.0000 C   0  0  0  0  0  0  0  0  0  0  0  0
    4.1269   -0.3490    0.0000 C   0  0  0  0  0  0  0  0  0  0  0  0
    5.7153    0.4609    0.0000 N   0  0  0  0  0  0  0  0  0  0  0  0
    6.0238    1.4170    0.0000 N   0  0  0  0  0  0  0  0  0  0  0  0
    4.3404    4.5028    0.0000 C   0  0  0  0  0  0  0  0  0  0  0  0
    5.2057    5.0040    0.0000 C   0  0  0  0  0  0  0  0  0  0  0  0
    3.4729    5.0003    0.0000 N   0  0  0  0  0  0  0  0  0  0  0  0
    2.6054    4.5028    0.0000 C   0  0  0  0  0  0  0  0  0  0  0  0
    1.7401    5.0040    0.0000 C   0  0  0  0  0  0  0  0  0  0  0  0
    0.8748    5.5053    0.0000 N   0  0  0  0  0  0  0  0  0  0  0  0
    0.8675    1.5027    0.0000 C   0  0  0  0  0  0  0  0  0  0  0  0
    0.8675    0.4975    0.0000 C   0  0  0  0  0  0  0  0  0  0  0  0
    0.0000    0.0000    0.0000 C   0  0  0  0  0  0  0  0  0  0  0  0
   -0.8675    0.4975    0.0000 C   0  0  0  0  0  0  0  0  0  0  0  0
   -1.7328   -0.0038    0.0000 F   0  0  0  0  0  0  0  0  0  0  0  0
   -0.8675    1.5027    0.0000 C   0  0  0  0  0  0  0  0  0  0  0  0
    0.0000    2.0104    0.0000 N   0  0  0  0  0  0  0  0  0  0  0  0
  2  1  1  1
  2  3  1  0
  3  4  1  0
  4 17  1  0
  4  5  2  0
  5  6  1  0
  6  7  1  0
  7  8  1  0
  8 13  2  0
  8  9  1  0
  9 10  2  0
 10 11  1  0
 10 12  1  0
 12 13  1  0
  6 14  2  0
 14 15  1  0
 14 16  1  0
 16 17  2  0
 17 18  1  0
 18 19  3  0
  2 20  1  0
 20 26  1  0
 20 21  2  0
 21 22  1  0
 22 23  2  0
 23 24  1  0
 23 25  1  0
 25 26  2  0
M  END
>  <SMILES>  (320) 
Cc1cc(Nc2nc(N[C@@H](C)c3ccc(F)cn3)c(C#N)nc2C)n[nH]1

>  <CollectionName>  (320) 
chembl

>  <LOG PLASMA PROTEIN BINDING (RAT) (% unbound)>  (320) 
1.27852496474

>  <Internal ID>  (320) 


>  <Source>  (320) 
AstraZeneca

$$$$
CHEMBL1938400
     RDKit          2D

 48 53  0  0  0  0  0  0  0  0999 V2000
    0.7971    9.4126    0.0000 C   0  0  0  0  0  0  0  0  0  0  0  0
    0.2091    8.6038    0.0000 C   0  0  0  0  0  0  0  0  0  0  0  0
   -0.5998    9.1917    0.0000 C   0  0  0  0  0  0  0  0  0  0  0  0
    1.0180    8.0158    0.0000 C   0  0  0  0  0  0  0  0  0  0  0  0
   -0.3789    7.7949    0.0000 C   0  0  0  0  0  0  0  0  0  0  0  0
   -0.0671    6.8447    0.0000 C   0  0  0  0  0  0  0  0  0  0  0  0
   -0.8772    6.2558    0.0000 C   0  0  0  0  0  0  0  0  0  0  0  0
   -0.8747    4.5058    0.0000 N   0  0  0  0  0  0  0  0  0  0  0  0
   -1.7401    4.0046    0.0000 C   0  0  0  0  0  0  0  0  0  0  0  0
   -2.6068    4.5034    0.0000 O   0  0  0  0  0  0  0  0  0  0  0  0
   -1.7386    3.0046    0.0000 N   0  0  0  0  0  0  0  0  0  0  0  0
   -2.6040    2.5034    0.0000 C   0  0  0  0  0  0  0  0  0  0  0  0
   -2.6026    1.5034    0.0000 C   0  0  0  0  0  0  0  0  0  0  0  0
   -3.4672    1.0009    0.0000 C   0  0  0  0  0  0  0  0  0  0  0  0
   -3.4701    0.0009    0.0000 C   0  0  0  0  0  0  0  0  0  0  0  0
   -2.5996   -0.5018    0.0000 C   0  0  0  0  0  0  0  0  0  0  0  0
   -1.7262   -0.0044    0.0000 C   0  0  0  0  0  0  0  0  0  0  0  0
   -1.7320    1.0008    0.0000 C   0  0  0  0  0  0  0  0  0  0  0  0
   -0.8675    1.5033    0.0000 S   0  0  0  0  0  0  0  0  0  0  0  0
    0.0000    1.0058    0.0000 C   0  0  0  0  0  0  0  0  0  0  0  0
    0.0000    0.0000    0.0000 C   0  0  0  0  0  0  0  0  0  0  0  0
    0.8680   -0.4979    0.0000 C   0  0  0  0  0  0  0  0  0  0  0  0
    1.7360   -0.0013    0.0000 C   0  0  0  0  0  0  0  0  0  0  0  0
    2.6938   -0.3126    0.0000 N   0  0  0  0  0  0  0  0  0  0  0  0
    3.2858    0.5022    0.0000 N   0  0  0  0  0  0  0  0  0  0  0  0
    2.6938    1.3168    0.0000 C   0  0  0  0  0  0  0  0  0  0  0  0
    3.0029    2.2678    0.0000 C   0  0  0  0  0  0  0  0  0  0  0  0
    2.3348    3.0120    0.0000 C   0  0  0  0  0  0  0  0  0  0  0  0
    2.6397    3.9644    0.0000 C   0  0  0  0  0  0  0  0  0  0  0  0
    3.6227    4.1748    0.0000 C   0  0  0  0  0  0  0  0  0  0  0  0
    4.3007    3.4328    0.0000 C   0  0  0  0  0  0  0  0  0  0  0  0
    3.9858    2.4782    0.0000 C   0  0  0  0  0  0  0  0  0  0  0  0
    4.6538    1.7341    0.0000 S   0  0  0  0  0  0  0  0  0  0  0  0
    5.6322    1.9405    0.0000 C   0  0  0  0  0  0  0  0  0  0  0  0
    6.3002    1.1963    0.0000 C   0  0  0  0  0  0  0  0  0  0  0  0
    7.2787    1.4027    0.0000 O   0  0  0  0  0  0  0  0  0  0  0  0
    1.7360    1.0058    0.0000 N   0  0  0  0  0  0  0  0  0  0  0  0
    0.8680    1.5137    0.0000 C   0  0  0  0  0  0  0  0  0  0  0  0
   -1.6891    6.8425    0.0000 N   0  0  0  0  0  0  0  0  0  0  0  0
   -1.3793    7.7982    0.0000 N   0  0  0  0  0  0  0  0  0  0  0  0
   -2.6396    6.5319    0.0000 C   0  0  0  0  0  0  0  0  0  0  0  0
   -2.8441    5.5477    0.0000 C   0  0  0  0  0  0  0  0  0  0  0  0
   -3.7947    5.2371    0.0000 C   0  0  0  0  0  0  0  0  0  0  0  0
   -4.5428    5.9006    0.0000 C   0  0  0  0  0  0  0  0  0  0  0  0
   -5.4920    5.5859    0.0000 O   0  0  0  0  0  0  0  0  0  0  0  0
   -4.3384    6.8848    0.0000 C   0  0  0  0  0  0  0  0  0  0  0  0
   -5.0865    7.5483    0.0000 Cl  0  0  0  0  0  0  0  0  0  0  0  0
   -3.3857    7.2055    0.0000 C   0  0  0  0  0  0  0  0  0  0  0  0
  1  2  1  0
  2  3  1  0
  2  4  1  0
  2  5  1  0
  5 40  2  0
  5  6  1  0
  6  7  2  0
  7  8  1  0
  8  9  1  0
  9 10  2  0
  9 11  1  0
 11 12  1  0
 12 13  1  0
 13 18  1  0
 13 14  2  0
 14 15  1  0
 15 16  2  0
 16 17  1  0
 17 18  2  0
 18 19  1  0
 19 20  1  0
 20 38  2  0
 20 21  1  0
 21 22  2  0
 22 23  1  0
 23 37  1  0
 23 24  2  0
 24 25  1  0
 25 26  2  0
 26 27  1  0
 27 32  1  0
 27 28  2  0
 28 29  1  0
 29 30  2  0
 30 31  1  0
 31 32  2  0
 32 33  1  0
 33 34  1  0
 34 35  1  0
 35 36  1  0
 26 37  1  0
 37 38  1  0
  7 39  1  0
 39 40  1  0
 39 41  1  0
 41 48  1  0
 41 42  2  0
 42 43  1  0
 43 44  2  0
 44 45  1  0
 44 46  1  0
 46 47  1  0
 46 48  2  0
M  END
>  <SMILES>  (321) 
CC(C)(C)c1cc(NC(=O)NCc2ccccc2Sc2ccc3nnc(-c4ccccc4SCCO)n3c2)n(-c2ccc(O)c(Cl)c2)n1

>  <CollectionName>  (321) 
chembl

>  <LOG PLASMA PROTEIN BINDING (RAT) (% unbound)>  (321) 
-0.886056647693

>  <Internal ID>  (321) 


>  <Source>  (321) 
AstraZeneca

$$$$
CHEMBL569185
     RDKit          2D

 29 31  0  0  1  0  0  0  0  0999 V2000
    2.2302    7.5468    0.0000 C   0  0  0  0  0  0  0  0  0  0  0  0
    1.3627    7.0493    0.0000 O   0  0  0  0  0  0  0  0  0  0  0  0
    1.3598    6.0493    0.0000 C   0  0  0  0  0  0  0  0  0  0  0  0
    2.2304    5.5467    0.0000 C   0  0  0  0  0  0  0  0  0  0  0  0
    2.2276    4.5467    0.0000 C   0  0  0  0  0  0  0  0  0  0  0  0
    1.3630    4.0441    0.0000 C   0  0  0  0  0  0  0  0  0  0  0  0
    1.3645    3.0441    0.0000 C   0  0  0  0  0  0  0  0  0  0  0  0
    0.4993    2.5428    0.0000 C   0  0  0  0  0  0  0  0  0  0  0  0
    0.5008    1.5428    0.0000 N   0  0  0  0  0  0  0  0  0  0  0  0
   -0.3065    0.9519    0.0000 C   0  0  0  0  0  0  0  0  0  0  0  0
    0.0000    0.0000    0.0000 C   0  0  0  0  0  0  0  0  0  0  0  0
    1.0015   -0.0000    0.0000 N   0  0  0  0  0  0  0  0  0  0  0  0
    1.5883   -0.8097    0.0000 N   0  0  0  0  0  0  0  0  0  0  0  0
    2.5830   -0.7064    0.0000 S   0  0  0  0  0  0  0  0  0  0  0  0
    2.6863   -1.7010    0.0000 O   0  0  0  0  0  0  0  0  0  0  0  0
    2.4796    0.2883    0.0000 O   0  0  0  0  0  0  0  0  0  0  0  0
    3.5776   -0.6030    0.0000 C   0  0  0  0  0  0  0  0  0  0  0  0
    1.3133    0.9519    0.0000 C   0  0  0  0  0  0  0  0  0  0  0  0
    2.2648    1.2596    0.0000 O   0  0  0  0  0  0  0  0  0  0  0  0
   -1.2577    1.2605    0.0000 C   0  0  0  0  0  0  0  0  0  0  0  0
   -1.4675    2.2383    0.0000 C   0  0  0  0  0  0  0  0  0  0  0  0
   -2.4173    2.5510    0.0000 C   0  0  0  0  0  0  0  0  0  0  0  0
   -3.1650    1.8792    0.0000 C   0  0  0  0  0  0  0  0  0  0  0  0
   -4.1148    2.1920    0.0000 O   0  0  0  0  0  0  0  0  0  0  0  0
   -4.3189    3.1709    0.0000 C   0  0  0  0  0  0  0  0  0  0  0  0
   -2.9628    0.8946    0.0000 C   0  0  0  0  0  0  0  0  0  0  0  0
   -2.0054    0.5886    0.0000 C   0  0  0  0  0  0  0  0  0  0  0  0
    0.4924    4.5467    0.0000 C   0  0  0  0  0  0  0  0  0  0  0  0
    0.4864    5.5518    0.0000 C   0  0  0  0  0  0  0  0  0  0  0  0
  1  2  1  0
  2  3  1  0
  3 29  2  0
  3  4  1  0
  4  5  2  0
  5  6  1  0
  6  7  1  0
  7  8  1  0
  8  9  1  0
  9 18  1  0
  9 10  1  0
 10 11  1  0
 11 12  1  0
 12 13  1  0
 13 14  1  0
 14 15  2  0
 14 16  2  0
 14 17  1  0
 12 18  1  0
 18 19  2  0
 10 20  1  1
 20 27  1  0
 20 21  2  0
 21 22  1  0
 22 23  2  0
 23 24  1  0
 24 25  1  0
 23 26  1  0
 26 27  2  0
  6 28  2  0
 28 29  1  0
M  END
>  <SMILES>  (322) 
COc1ccc(CCN2C(=O)N(NS(C)(=O)=O)C[C@H]2c2ccc(OC)cc2)cc1

>  <CollectionName>  (322) 
chembl

>  <LOG PLASMA PROTEIN BINDING (RAT) (% unbound)>  (322) 
0.754348335711

>  <Internal ID>  (322) 


>  <Source>  (322) 
AstraZeneca

$$$$
CHEMBL1916085
     RDKit          2D

 32 35  0  0  0  0  0  0  0  0999 V2000
    0.3694   -2.4343    0.0000 C   0  0  0  0  0  0  0  0  0  0  0  0
   -0.6250   -2.3285    0.0000 N   0  0  0  0  0  0  0  0  0  0  0  0
   -1.2138   -3.1367    0.0000 C   0  0  0  0  0  0  0  0  0  0  0  0
   -0.8035   -4.0544    0.0000 C   0  0  0  0  0  0  0  0  0  0  0  0
   -1.3923   -4.8627    0.0000 C   0  0  0  0  0  0  0  0  0  0  0  0
   -2.3873   -4.7626    0.0000 C   0  0  0  0  0  0  0  0  0  0  0  0
   -2.7977   -3.8450    0.0000 C   0  0  0  0  0  0  0  0  0  0  0  0
   -2.2130   -3.0274    0.0000 C   0  0  0  0  0  0  0  0  0  0  0  0
   -1.0305   -1.4144    0.0000 C   0  0  0  0  0  0  0  0  0  0  0  0
   -2.0249   -1.3086    0.0000 O   0  0  0  0  0  0  0  0  0  0  0  0
    0.0000    0.0000    0.0000 C   0  0  0  0  0  0  0  0  0  0  0  0
    1.0015    0.0000    0.0000 C   0  0  0  0  0  0  0  0  0  0  0  0
    1.3133    0.9519    0.0000 N   0  0  0  0  0  0  0  0  0  0  0  0
    0.5008    1.5428    0.0000 N   0  0  0  0  0  0  0  0  0  0  0  0
   -0.3065    0.9519    0.0000 C   0  0  0  0  0  0  0  0  0  0  0  0
   -1.9711    1.4920    0.0000 N   0  0  0  0  0  0  0  0  0  0  0  0
   -2.7139    0.8225    0.0000 S   0  0  0  0  0  0  0  0  0  0  0  0
   -3.3834    1.5654    0.0000 O   0  0  0  0  0  0  0  0  0  0  0  0
   -2.0445    0.0796    0.0000 O   0  0  0  0  0  0  0  0  0  0  0  0
   -3.4568    0.1530    0.0000 C   0  0  0  0  0  0  0  0  0  0  0  0
   -3.2445   -0.8295    0.0000 C   0  0  0  0  0  0  0  0  0  0  0  0
   -3.9873   -1.4990    0.0000 C   0  0  0  0  0  0  0  0  0  0  0  0
   -4.9403   -1.1959    0.0000 C   0  0  0  0  0  0  0  0  0  0  0  0
   -5.6802   -1.8687    0.0000 C   0  0  0  0  0  0  0  0  0  0  0  0
   -5.1526   -0.2134    0.0000 C   0  0  0  0  0  0  0  0  0  0  0  0
   -4.4120    0.4661    0.0000 C   0  0  0  0  0  0  0  0  0  0  0  0
    0.4993    2.5428    0.0000 C   0  0  0  0  0  0  0  0  0  0  0  0
   -0.3735    3.0415    0.0000 C   0  0  0  0  0  0  0  0  0  0  0  0
   -0.3751    4.0415    0.0000 C   0  0  0  0  0  0  0  0  0  0  0  0
    0.4873    4.5479    0.0000 C   0  0  0  0  0  0  0  0  0  0  0  0
    1.3600    4.0492    0.0000 C   0  0  0  0  0  0  0  0  0  0  0  0
    1.3705    3.0441    0.0000 C   0  0  0  0  0  0  0  0  0  0  0  0
  1  2  1  0
  2  3  1  0
  3  8  1  0
  3  4  1  0
  4  5  1  0
  5  6  1  0
  6  7  1  0
  7  8  1  0
  2  9  1  0
  9 10  2  0
  9 11  1  0
 11 15  2  0
 11 12  1  0
 12 13  2  0
 13 14  1  0
 14 15  1  0
 15 16  1  0
 16 17  1  0
 17 18  2  0
 17 19  2  0
 17 20  1  0
 20 26  1  0
 20 21  2  0
 21 22  1  0
 22 23  2  0
 23 24  1  0
 23 25  1  0
 25 26  2  0
 14 27  1  0
 27 32  1  0
 27 28  2  0
 28 29  1  0
 29 30  2  0
 30 31  1  0
 31 32  2  0
M  END
>  <SMILES>  (323) 
Cc1ccc(S(=O)(=O)Nc2c(C(=O)N(C)C3CCCCC3)cnn2-c2ccccc2)cc1

>  <CollectionName>  (323) 
chembl

>  <LOG PLASMA PROTEIN BINDING (RAT) (% unbound)>  (323) 
0.271841606536

>  <Internal ID>  (323) 


>  <Source>  (323) 
AstraZeneca

$$$$
CHEMBL1916263
     RDKit          2D

 30 32  0  0  0  0  0  0  0  0999 V2000
   -0.9555   -4.2529    0.0000 C   0  0  0  0  0  0  0  0  0  0  0  0
   -0.3667   -3.4446    0.0000 C   0  0  0  0  0  0  0  0  0  0  0  0
   -0.7722   -2.5306    0.0000 C   0  0  0  0  0  0  0  0  0  0  0  0
   -1.7666   -2.4247    0.0000 C   0  0  0  0  0  0  0  0  0  0  0  0
   -2.3554   -3.2329    0.0000 C   0  0  0  0  0  0  0  0  0  0  0  0
   -0.1833   -1.7223    0.0000 N   0  0  0  0  0  0  0  0  0  0  0  0
   -0.5889   -0.8082    0.0000 C   0  0  0  0  0  0  0  0  0  0  0  0
   -1.5832   -0.7024    0.0000 O   0  0  0  0  0  0  0  0  0  0  0  0
    0.0000    0.0000    0.0000 C   0  0  0  0  0  0  0  0  0  0  0  0
    1.0015    0.0000    0.0000 C   0  0  0  0  0  0  0  0  0  0  0  0
    1.3133    0.9519    0.0000 N   0  0  0  0  0  0  0  0  0  0  0  0
    0.5008    1.5428    0.0000 N   0  0  0  0  0  0  0  0  0  0  0  0
   -0.3065    0.9519    0.0000 C   0  0  0  0  0  0  0  0  0  0  0  0
   -1.2577    1.2605    0.0000 N   0  0  0  0  0  0  0  0  0  0  0  0
   -1.4660    2.2386    0.0000 S   0  0  0  0  0  0  0  0  0  0  0  0
   -2.4441    2.0302    0.0000 O   0  0  0  0  0  0  0  0  0  0  0  0
   -0.4880    2.4469    0.0000 O   0  0  0  0  0  0  0  0  0  0  0  0
   -1.6744    3.2166    0.0000 C   0  0  0  0  0  0  0  0  0  0  0  0
   -0.9257    3.8873    0.0000 C   0  0  0  0  0  0  0  0  0  0  0  0
   -1.1340    4.8654    0.0000 C   0  0  0  0  0  0  0  0  0  0  0  0
   -2.0834    5.1796    0.0000 C   0  0  0  0  0  0  0  0  0  0  0  0
   -2.2874    6.1586    0.0000 C   0  0  0  0  0  0  0  0  0  0  0  0
   -2.8321    4.5089    0.0000 C   0  0  0  0  0  0  0  0  0  0  0  0
   -2.6314    3.5240    0.0000 C   0  0  0  0  0  0  0  0  0  0  0  0
    2.2648    1.2596    0.0000 C   0  0  0  0  0  0  0  0  0  0  0  0
    2.4723    2.2431    0.0000 C   0  0  0  0  0  0  0  0  0  0  0  0
    3.4238    2.5508    0.0000 C   0  0  0  0  0  0  0  0  0  0  0  0
    4.1699    1.8850    0.0000 C   0  0  0  0  0  0  0  0  0  0  0  0
    3.9624    0.9014    0.0000 C   0  0  0  0  0  0  0  0  0  0  0  0
    3.0088    0.5837    0.0000 C   0  0  0  0  0  0  0  0  0  0  0  0
  1  2  1  0
  2  3  1  0
  3  4  1  0
  4  5  1  0
  3  6  1  0
  6  7  1  0
  7  8  2  0
  7  9  1  0
  9 13  1  0
  9 10  2  0
 10 11  1  0
 11 12  1  0
 12 13  2  0
 13 14  1  0
 14 15  1  0
 15 16  2  0
 15 17  2  0
 15 18  1  0
 18 24  1  0
 18 19  2  0
 19 20  1  0
 20 21  2  0
 21 22  1  0
 21 23  1  0
 23 24  2  0
 11 25  1  0
 25 30  1  0
 25 26  2  0
 26 27  1  0
 27 28  2  0
 28 29  1  0
 29 30  2  0
M  END
>  <SMILES>  (324) 
CCC(CC)NC(=O)c1cn(-c2ccccc2)nc1NS(=O)(=O)c1ccc(C)cc1

>  <CollectionName>  (324) 
chembl

>  <LOG PLASMA PROTEIN BINDING (RAT) (% unbound)>  (324) 
-0.481486060122

>  <Internal ID>  (324) 


>  <Source>  (324) 
AstraZeneca

$$$$
CHEMBL1916273
     RDKit          2D

 29 31  0  0  0  0  0  0  0  0999 V2000
   -0.3667   -3.4446    0.0000 C   0  0  0  0  0  0  0  0  0  0  0  0
   -0.7722   -2.5306    0.0000 C   0  0  0  0  0  0  0  0  0  0  0  0
   -1.7666   -2.4247    0.0000 C   0  0  0  0  0  0  0  0  0  0  0  0
   -0.1833   -1.7223    0.0000 N   0  0  0  0  0  0  0  0  0  0  0  0
   -0.5889   -0.8082    0.0000 C   0  0  0  0  0  0  0  0  0  0  0  0
   -1.5832   -0.7024    0.0000 O   0  0  0  0  0  0  0  0  0  0  0  0
    0.0000    0.0000    0.0000 C   0  0  0  0  0  0  0  0  0  0  0  0
   -0.3065    0.9519    0.0000 C   0  0  0  0  0  0  0  0  0  0  0  0
   -1.2577    1.2605    0.0000 C   0  0  0  0  0  0  0  0  0  0  0  0
    0.5008    1.5428    0.0000 N   0  0  0  0  0  0  0  0  0  0  0  0
    1.3133    0.9519    0.0000 N   0  0  0  0  0  0  0  0  0  0  0  0
    1.0015   -0.0000    0.0000 C   0  0  0  0  0  0  0  0  0  0  0  0
    1.5883   -0.8097    0.0000 N   0  0  0  0  0  0  0  0  0  0  0  0
    2.5830   -0.7064    0.0000 S   0  0  0  0  0  0  0  0  0  0  0  0
    2.4796    0.2883    0.0000 O   0  0  0  0  0  0  0  0  0  0  0  0
    3.5776   -0.6030    0.0000 O   0  0  0  0  0  0  0  0  0  0  0  0
    2.6863   -1.7010    0.0000 C   0  0  0  0  0  0  0  0  0  0  0  0
    3.6053   -2.1083    0.0000 C   0  0  0  0  0  0  0  0  0  0  0  0
    3.7087   -3.1029    0.0000 C   0  0  0  0  0  0  0  0  0  0  0  0
    2.9024   -3.6945    0.0000 C   0  0  0  0  0  0  0  0  0  0  0  0
    3.0101   -4.6887    0.0000 C   0  0  0  0  0  0  0  0  0  0  0  0
    1.9834   -3.2873    0.0000 C   0  0  0  0  0  0  0  0  0  0  0  0
    1.8707   -2.2885    0.0000 C   0  0  0  0  0  0  0  0  0  0  0  0
    2.9784    1.4903    0.0000 C   0  0  0  0  0  0  0  0  0  0  0  0
    3.1859    2.4739    0.0000 C   0  0  0  0  0  0  0  0  0  0  0  0
    4.1374    2.7816    0.0000 C   0  0  0  0  0  0  0  0  0  0  0  0
    4.8835    2.1157    0.0000 C   0  0  0  0  0  0  0  0  0  0  0  0
    4.6761    1.1322    0.0000 C   0  0  0  0  0  0  0  0  0  0  0  0
    3.7224    0.8145    0.0000 C   0  0  0  0  0  0  0  0  0  0  0  0
  1  2  1  0
  2  3  1  0
  2  4  1  0
  4  5  1  0
  5  6  2  0
  5  7  1  0
  7 12  2  0
  7  8  1  0
  8  9  1  0
  8 10  2  0
 10 11  1  0
 11 12  1  0
 12 13  1  0
 13 14  1  0
 14 15  2  0
 14 16  2  0
 14 17  1  0
 17 23  1  0
 17 18  2  0
 18 19  1  0
 19 20  2  0
 20 21  1  0
 20 22  1  0
 22 23  2  0
 11 24  1  0
 24 29  1  0
 24 25  2  0
 25 26  1  0
 26 27  2  0
 27 28  1  0
 28 29  2  0
M  END
>  <SMILES>  (325) 
Cc1ccc(S(=O)(=O)Nc2c(C(=O)NC(C)C)c(C)nn2-c2ccccc2)cc1

>  <CollectionName>  (325) 
chembl

>  <LOG PLASMA PROTEIN BINDING (RAT) (% unbound)>  (325) 
0.707570176098

>  <Internal ID>  (325) 


>  <Source>  (325) 
AstraZeneca

$$$$
CHEMBL1916277
     RDKit          2D

 33 36  0  0  1  0  0  0  0  0999 V2000
    0.6327   -3.5525    0.0000 C   0  0  0  0  0  0  0  0  0  0  0  0
   -0.3619   -3.4482    0.0000 C   0  0  0  0  0  0  0  0  0  0  0  0
   -0.9507   -4.2565    0.0000 C   0  0  0  0  0  0  0  0  0  0  0  0
   -1.9457   -4.1564    0.0000 C   0  0  0  0  0  0  0  0  0  0  0  0
   -2.3560   -3.2388    0.0000 C   0  0  0  0  0  0  0  0  0  0  0  0
   -1.7714   -2.4212    0.0000 C   0  0  0  0  0  0  0  0  0  0  0  0
   -0.7722   -2.5306    0.0000 C   0  0  0  0  0  0  0  0  0  0  0  0
   -0.1833   -1.7223    0.0000 N   0  0  0  0  0  0  0  0  0  0  0  0
   -0.5889   -0.8082    0.0000 C   0  0  0  0  0  0  0  0  0  0  0  0
   -1.5832   -0.7024    0.0000 O   0  0  0  0  0  0  0  0  0  0  0  0
    0.0000    0.0000    0.0000 C   0  0  0  0  0  0  0  0  0  0  0  0
   -0.3065    0.9519    0.0000 C   0  0  0  0  0  0  0  0  0  0  0  0
   -1.2577    1.2605    0.0000 C   0  0  0  0  0  0  0  0  0  0  0  0
    0.5008    1.5428    0.0000 N   0  0  0  0  0  0  0  0  0  0  0  0
    1.3133    0.9519    0.0000 N   0  0  0  0  0  0  0  0  0  0  0  0
    1.0015   -0.0000    0.0000 C   0  0  0  0  0  0  0  0  0  0  0  0
    1.5883   -0.8097    0.0000 N   0  0  0  0  0  0  0  0  0  0  0  0
    2.5830   -0.7064    0.0000 S   0  0  0  0  0  0  0  0  0  0  0  0
    2.4796    0.2883    0.0000 O   0  0  0  0  0  0  0  0  0  0  0  0
    3.5776   -0.6030    0.0000 O   0  0  0  0  0  0  0  0  0  0  0  0
    2.6863   -1.7010    0.0000 C   0  0  0  0  0  0  0  0  0  0  0  0
    3.6053   -2.1083    0.0000 C   0  0  0  0  0  0  0  0  0  0  0  0
    3.7087   -3.1029    0.0000 C   0  0  0  0  0  0  0  0  0  0  0  0
    2.9024   -3.6945    0.0000 C   0  0  0  0  0  0  0  0  0  0  0  0
    3.0101   -4.6887    0.0000 C   0  0  0  0  0  0  0  0  0  0  0  0
    1.9834   -3.2873    0.0000 C   0  0  0  0  0  0  0  0  0  0  0  0
    1.8707   -2.2885    0.0000 C   0  0  0  0  0  0  0  0  0  0  0  0
    2.9784    1.4903    0.0000 C   0  0  0  0  0  0  0  0  0  0  0  0
    3.1859    2.4739    0.0000 C   0  0  0  0  0  0  0  0  0  0  0  0
    4.1374    2.7816    0.0000 C   0  0  0  0  0  0  0  0  0  0  0  0
    4.8835    2.1157    0.0000 C   0  0  0  0  0  0  0  0  0  0  0  0
    4.6761    1.1322    0.0000 C   0  0  0  0  0  0  0  0  0  0  0  0
    3.7224    0.8145    0.0000 C   0  0  0  0  0  0  0  0  0  0  0  0
  1  2  1  0
  2  7  1  0
  2  3  1  0
  3  4  1  0
  4  5  1  0
  5  6  1  0
  6  7  1  0
  7  8  1  0
  8  9  1  0
  9 10  2  0
  9 11  1  0
 11 16  2  0
 11 12  1  0
 12 13  1  0
 12 14  2  0
 14 15  1  0
 15 16  1  0
 16 17  1  0
 17 18  1  0
 18 19  2  0
 18 20  2  0
 18 21  1  0
 21 27  1  0
 21 22  2  0
 22 23  1  0
 23 24  2  0
 24 25  1  0
 24 26  1  0
 26 27  2  0
 15 28  1  0
 28 33  1  0
 28 29  2  0
 29 30  1  0
 30 31  2  0
 31 32  1  0
 32 33  2  0
M  END
>  <SMILES>  (326) 
Cc1ccc(S(=O)(=O)Nc2c(C(=O)NC3CCCCC3C)c(C)nn2-c2ccccc2)cc1

>  <CollectionName>  (326) 
chembl

>  <LOG PLASMA PROTEIN BINDING (RAT) (% unbound)>  (326) 
0.350248018334

>  <Internal ID>  (326) 


>  <Source>  (326) 
AstraZeneca

$$$$
CHEMBL1916282
     RDKit          2D

 32 34  0  0  1  0  0  0  0  0999 V2000
   -2.2082   -3.0309    0.0000 C   0  0  0  0  0  0  0  0  0  0  0  0
   -2.6137   -2.1168    0.0000 C   0  0  0  0  0  0  0  0  0  0  0  0
   -2.0249   -1.3086    0.0000 N   0  0  0  0  0  0  0  0  0  0  0  0
   -1.0305   -1.4144    0.0000 C   0  0  0  0  0  0  0  0  0  0  0  0
   -0.6250   -2.3285    0.0000 O   0  0  0  0  0  0  0  0  0  0  0  0
    0.0000    0.0000    0.0000 C   0  0  0  0  0  0  0  0  0  0  0  0
   -0.3065    0.9519    0.0000 C   0  0  0  0  0  0  0  0  0  0  0  0
   -1.2577    1.2605    0.0000 C   0  0  0  0  0  0  0  0  0  0  0  0
    0.5008    1.5428    0.0000 N   0  0  0  0  0  0  0  0  0  0  0  0
    1.3133    0.9519    0.0000 N   0  0  0  0  0  0  0  0  0  0  0  0
    1.0015   -0.0000    0.0000 C   0  0  0  0  0  0  0  0  0  0  0  0
    2.0284   -1.4170    0.0000 N   0  0  0  0  0  0  0  0  0  0  0  0
    1.6206   -2.3301    0.0000 S   0  0  0  0  0  0  0  0  0  0  0  0
    2.5337   -2.7379    0.0000 O   0  0  0  0  0  0  0  0  0  0  0  0
    0.7076   -1.9222    0.0000 O   0  0  0  0  0  0  0  0  0  0  0  0
    1.2128   -3.2431    0.0000 C   0  0  0  0  0  0  0  0  0  0  0  0
    0.2127   -3.3441    0.0000 C   0  0  0  0  0  0  0  0  0  0  0  0
   -0.1952   -4.2571    0.0000 C   0  0  0  0  0  0  0  0  0  0  0  0
    0.3869   -5.0703    0.0000 C   0  0  0  0  0  0  0  0  0  0  0  0
   -0.0250   -5.9815    0.0000 C   0  0  0  0  0  0  0  0  0  0  0  0
    1.3870   -4.9694    0.0000 C   0  0  0  0  0  0  0  0  0  0  0  0
    1.8050   -4.0553    0.0000 C   0  0  0  0  0  0  0  0  0  0  0  0
    2.2648    1.2596    0.0000 C   0  0  0  0  0  0  0  0  0  0  0  0
    2.4723    2.2431    0.0000 C   0  0  0  0  0  0  0  0  0  0  0  0
    3.4238    2.5508    0.0000 C   0  0  0  0  0  0  0  0  0  0  0  0
    4.1699    1.8850    0.0000 C   0  0  0  0  0  0  0  0  0  0  0  0
    3.9624    0.9014    0.0000 C   0  0  0  0  0  0  0  0  0  0  0  0
    3.0088    0.5837    0.0000 C   0  0  0  0  0  0  0  0  0  0  0  0
   -3.6081   -2.0110    0.0000 C   0  0  0  0  0  0  0  0  0  0  0  0
   -4.6025   -1.9051    0.0000 C   0  0  0  0  0  0  0  0  0  0  0  0
   -3.5023   -1.0166    0.0000 C   0  0  0  0  0  0  0  0  0  0  0  0
   -3.7140   -3.0053    0.0000 C   0  0  0  0  0  0  0  0  0  0  0  0
  2  1  1  1
  2  3  1  0
  3  4  1  0
  4  5  2  0
  4  6  1  0
  6 11  2  0
  6  7  1  0
  7  8  1  0
  7  9  2  0
  9 10  1  0
 10 11  1  0
 11 12  1  0
 12 13  1  0
 13 14  2  0
 13 15  2  0
 13 16  1  0
 16 22  1  0
 16 17  2  0
 17 18  1  0
 18 19  2  0
 19 20  1  0
 19 21  1  0
 21 22  2  0
 10 23  1  0
 23 28  1  0
 23 24  2  0
 24 25  1  0
 25 26  2  0
 26 27  1  0
 27 28  2  0
  2 29  1  0
 29 30  1  0
 29 31  1  0
 29 32  1  0
M  END
>  <SMILES>  (327) 
Cc1ccc(S(=O)(=O)Nc2c(C(=O)N[C@@H](C)C(C)(C)C)c(C)nn2-c2ccccc2)cc1

>  <CollectionName>  (327) 
chembl

>  <LOG PLASMA PROTEIN BINDING (RAT) (% unbound)>  (327) 
0.621176281775

>  <Internal ID>  (327) 


>  <Source>  (327) 
AstraZeneca

$$$$
CHEMBL1924034
     RDKit          2D

 22 23  0  0  1  0  0  0  0  0999 V2000
   -0.6340   -3.3660    0.0000 C   0  0  0  0  0  0  0  0  0  0  0  0
   -0.1340   -2.5000    0.0000 N   0  0  0  0  0  0  0  0  0  0  0  0
   -0.6340   -1.6340    0.0000 C   0  0  0  0  0  0  0  0  0  0  0  0
    0.8660   -2.5000    0.0000 C   0  0  0  0  0  0  0  0  0  0  0  0
    1.8660   -2.5000    0.0000 C   0  0  0  0  0  0  0  0  0  0  0  0
    0.8660   -1.5000    0.0000 C   0  0  0  0  0  0  0  0  0  0  0  0
    1.7321   -1.0000    0.0000 O   0  0  0  0  0  0  0  0  0  0  0  0
    0.0000   -1.0000    0.0000 O   0  0  0  0  0  0  0  0  0  0  0  0
    0.0000    0.0000    0.0000 C   0  0  0  0  0  0  0  0  0  0  0  0
   -0.8675    0.4975    0.0000 C   0  0  0  0  0  0  0  0  0  0  0  0
   -0.8675    1.5027    0.0000 C   0  0  0  0  0  0  0  0  0  0  0  0
   -0.0000    2.0104    0.0000 N   0  0  0  0  0  0  0  0  0  0  0  0
   -0.6443    2.7752    0.0000 C   0  0  0  0  0  0  0  0  0  0  0  0
    0.6443    2.7752    0.0000 C   0  0  0  0  0  0  0  0  0  0  0  0
    0.8675    1.5027    0.0000 C   0  0  0  0  0  0  0  0  0  0  0  0
    0.8675    0.4975    0.0000 C   0  0  0  0  0  0  0  0  0  0  0  0
    0.8660   -4.2500    0.0000 C   0  0  0  0  0  0  0  0  0  0  0  0
    1.7380   -4.7500    0.0000 C   0  0  0  0  0  0  0  0  0  0  0  0
    1.7381   -5.7501    0.0000 C   0  0  0  0  0  0  0  0  0  0  0  0
    0.8750   -6.2551    0.0000 C   0  0  0  0  0  0  0  0  0  0  0  0
    0.0030   -5.7551    0.0000 C   0  0  0  0  0  0  0  0  0  0  0  0
   -0.0059   -4.7500    0.0000 C   0  0  0  0  0  0  0  0  0  0  0  0
  1  2  1  0
  2  3  1  0
  2  4  1  0
  4  5  1  0
  4  6  1  0
  6  7  2  0
  6  8  1  0
  8  9  1  0
  9 16  1  0
  9 10  1  0
 10 11  1  0
 11 12  1  0
 12 13  1  0
 12 14  1  0
 12 15  1  0
 15 16  1  0
  4 17  1  0
 17 22  1  0
 17 18  2  0
 18 19  1  0
 19 20  2  0
 20 21  1  0
 21 22  2  0
M  CHG  1  12   1
M  END
>  <SMILES>  (328) 
CN(C)C(C)(C(=O)OC1CC[N+](C)(C)CC1)c1ccccc1

>  <CollectionName>  (328) 
chembl

>  <LOG PLASMA PROTEIN BINDING (RAT) (% unbound)>  (328) 
1.6571515019

>  <Internal ID>  (328) 


>  <Source>  (328) 
AstraZeneca

$$$$
CHEMBL1934266
     RDKit          2D

 28 29  0  0  0  0  0  0  0  0999 V2000
   -0.9555   -4.2529    0.0000 C   0  0  0  0  0  0  0  0  0  0  0  0
   -0.3667   -3.4446    0.0000 C   0  0  0  0  0  0  0  0  0  0  0  0
   -0.7722   -2.5306    0.0000 C   0  0  0  0  0  0  0  0  0  0  0  0
   -1.7666   -2.4247    0.0000 C   0  0  0  0  0  0  0  0  0  0  0  0
   -2.1721   -1.5106    0.0000 C   0  0  0  0  0  0  0  0  0  0  0  0
   -0.1833   -1.7223    0.0000 N   0  0  0  0  0  0  0  0  0  0  0  0
   -0.5889   -0.8082    0.0000 C   0  0  0  0  0  0  0  0  0  0  0  0
   -1.5832   -0.7024    0.0000 O   0  0  0  0  0  0  0  0  0  0  0  0
    0.0000    0.0000    0.0000 C   0  0  0  0  0  0  0  0  0  0  0  0
   -0.3065    0.9519    0.0000 C   0  0  0  0  0  0  0  0  0  0  0  0
   -1.2577    1.2605    0.0000 C   0  0  0  0  0  0  0  0  0  0  0  0
    0.5008    1.5428    0.0000 N   0  0  0  0  0  0  0  0  0  0  0  0
    1.3133    0.9519    0.0000 N   0  0  0  0  0  0  0  0  0  0  0  0
    2.9784    1.4903    0.0000 C   0  0  0  0  0  0  0  0  0  0  0  0
    3.1877    2.4682    0.0000 C   0  0  0  0  0  0  0  0  0  0  0  0
    3.7206    0.8201    0.0000 C   0  0  0  0  0  0  0  0  0  0  0  0
    1.0015   -0.0000    0.0000 C   0  0  0  0  0  0  0  0  0  0  0  0
    2.0284   -1.4170    0.0000 N   0  0  0  0  0  0  0  0  0  0  0  0
    3.0231   -1.3137    0.0000 S   0  0  0  0  0  0  0  0  0  0  0  0
    3.1264   -2.3083    0.0000 O   0  0  0  0  0  0  0  0  0  0  0  0
    2.9197   -0.3190    0.0000 O   0  0  0  0  0  0  0  0  0  0  0  0
    4.0177   -1.2103    0.0000 C   0  0  0  0  0  0  0  0  0  0  0  0
    4.4250   -0.2913    0.0000 C   0  0  0  0  0  0  0  0  0  0  0  0
    5.4196   -0.1879    0.0000 C   0  0  0  0  0  0  0  0  0  0  0  0
    6.0112   -0.9942    0.0000 C   0  0  0  0  0  0  0  0  0  0  0  0
    7.0054   -0.8865    0.0000 C   0  0  0  0  0  0  0  0  0  0  0  0
    5.6040   -1.9132    0.0000 C   0  0  0  0  0  0  0  0  0  0  0  0
    4.6052   -2.0259    0.0000 C   0  0  0  0  0  0  0  0  0  0  0  0
  1  2  1  0
  2  3  1  0
  3  4  1  0
  4  5  1  0
  3  6  1  0
  6  7  1  0
  7  8  2  0
  7  9  1  0
  9 17  2  0
  9 10  1  0
 10 11  1  0
 10 12  2  0
 12 13  1  0
 13 14  1  0
 14 15  1  0
 14 16  1  0
 13 17  1  0
 17 18  1  0
 18 19  1  0
 19 20  2  0
 19 21  2  0
 19 22  1  0
 22 28  1  0
 22 23  2  0
 23 24  1  0
 24 25  2  0
 25 26  1  0
 25 27  1  0
 27 28  2  0
M  END
>  <SMILES>  (329) 
CCC(CC)NC(=O)c1c(C)nn(C(C)C)c1NS(=O)(=O)c1ccc(C)cc1

>  <CollectionName>  (329) 
chembl

>  <LOG PLASMA PROTEIN BINDING (RAT) (% unbound)>  (329) 
0.949390006645

>  <Internal ID>  (329) 


>  <Source>  (329) 
AstraZeneca

$$$$
CHEMBL1934267
     RDKit          2D

 29 30  0  0  1  0  0  0  0  0999 V2000
    3.1877    2.4682    0.0000 C   0  0  0  0  0  0  0  0  0  0  0  0
    2.9784    1.4903    0.0000 C   0  0  0  0  0  0  0  0  0  0  0  0
    3.7206    0.8201    0.0000 C   0  0  0  0  0  0  0  0  0  0  0  0
    1.3133    0.9519    0.0000 N   0  0  0  0  0  0  0  0  0  0  0  0
    0.5008    1.5428    0.0000 N   0  0  0  0  0  0  0  0  0  0  0  0
   -0.3065    0.9519    0.0000 C   0  0  0  0  0  0  0  0  0  0  0  0
   -1.2577    1.2605    0.0000 C   0  0  0  0  0  0  0  0  0  0  0  0
    0.0000    0.0000    0.0000 C   0  0  0  0  0  0  0  0  0  0  0  0
   -0.5889   -0.8082    0.0000 C   0  0  0  0  0  0  0  0  0  0  0  0
   -0.1833   -1.7223    0.0000 O   0  0  0  0  0  0  0  0  0  0  0  0
   -1.5832   -0.7024    0.0000 N   0  0  0  0  0  0  0  0  0  0  0  0
   -2.1721   -1.5106    0.0000 C   0  0  0  0  0  0  0  0  0  0  0  0
   -1.7666   -2.4247    0.0000 C   0  0  0  0  0  0  0  0  0  0  0  0
   -3.1665   -1.4048    0.0000 C   0  0  0  0  0  0  0  0  0  0  0  0
   -4.1609   -1.2989    0.0000 C   0  0  0  0  0  0  0  0  0  0  0  0
   -3.0606   -0.4104    0.0000 C   0  0  0  0  0  0  0  0  0  0  0  0
   -3.2723   -2.3992    0.0000 C   0  0  0  0  0  0  0  0  0  0  0  0
    1.0015   -0.0000    0.0000 C   0  0  0  0  0  0  0  0  0  0  0  0
    2.0284   -1.4170    0.0000 N   0  0  0  0  0  0  0  0  0  0  0  0
    3.0231   -1.3137    0.0000 S   0  0  0  0  0  0  0  0  0  0  0  0
    3.1264   -2.3083    0.0000 O   0  0  0  0  0  0  0  0  0  0  0  0
    2.9197   -0.3190    0.0000 O   0  0  0  0  0  0  0  0  0  0  0  0
    4.0177   -1.2103    0.0000 C   0  0  0  0  0  0  0  0  0  0  0  0
    4.4250   -0.2913    0.0000 C   0  0  0  0  0  0  0  0  0  0  0  0
    5.4196   -0.1879    0.0000 C   0  0  0  0  0  0  0  0  0  0  0  0
    6.0112   -0.9942    0.0000 C   0  0  0  0  0  0  0  0  0  0  0  0
    7.0054   -0.8865    0.0000 C   0  0  0  0  0  0  0  0  0  0  0  0
    5.6040   -1.9132    0.0000 C   0  0  0  0  0  0  0  0  0  0  0  0
    4.6052   -2.0259    0.0000 C   0  0  0  0  0  0  0  0  0  0  0  0
  1  2  1  0
  2  3  1  0
  2  4  1  0
  4 18  1  0
  4  5  1  0
  5  6  2  0
  6  7  1  0
  6  8  1  0
  8  9  1  0
  9 10  2  0
  9 11  1  0
 11 12  1  0
 12 13  1  1
 12 14  1  0
 14 15  1  0
 14 16  1  0
 14 17  1  0
  8 18  2  0
 18 19  1  0
 19 20  1  0
 20 21  2  0
 20 22  2  0
 20 23  1  0
 23 29  1  0
 23 24  2  0
 24 25  1  0
 25 26  2  0
 26 27  1  0
 26 28  1  0
 28 29  2  0
M  END
>  <SMILES>  (330) 
Cc1ccc(S(=O)(=O)Nc2c(C(=O)N[C@@H](C)C(C)(C)C)c(C)nn2C(C)C)cc1

>  <CollectionName>  (330) 
chembl

>  <LOG PLASMA PROTEIN BINDING (RAT) (% unbound)>  (330) 
0.621176281775

>  <Internal ID>  (330) 


>  <Source>  (330) 
AstraZeneca

$$$$
CHEMBL1934268
     RDKit          2D

 28 29  0  0  1  0  0  0  0  0999 V2000
    2.4741    2.2374    0.0000 C   0  0  0  0  0  0  0  0  0  0  0  0
    2.2648    1.2596    0.0000 C   0  0  0  0  0  0  0  0  0  0  0  0
    1.3133    0.9519    0.0000 N   0  0  0  0  0  0  0  0  0  0  0  0
    0.5008    1.5428    0.0000 N   0  0  0  0  0  0  0  0  0  0  0  0
   -0.3065    0.9519    0.0000 C   0  0  0  0  0  0  0  0  0  0  0  0
   -1.2577    1.2605    0.0000 C   0  0  0  0  0  0  0  0  0  0  0  0
    0.0000    0.0000    0.0000 C   0  0  0  0  0  0  0  0  0  0  0  0
   -0.5889   -0.8082    0.0000 C   0  0  0  0  0  0  0  0  0  0  0  0
   -0.1833   -1.7223    0.0000 O   0  0  0  0  0  0  0  0  0  0  0  0
   -1.5832   -0.7024    0.0000 N   0  0  0  0  0  0  0  0  0  0  0  0
   -2.1721   -1.5106    0.0000 C   0  0  0  0  0  0  0  0  0  0  0  0
   -1.7666   -2.4247    0.0000 C   0  0  0  0  0  0  0  0  0  0  0  0
   -3.1665   -1.4048    0.0000 C   0  0  0  0  0  0  0  0  0  0  0  0
   -4.1609   -1.2989    0.0000 C   0  0  0  0  0  0  0  0  0  0  0  0
   -3.0606   -0.4104    0.0000 C   0  0  0  0  0  0  0  0  0  0  0  0
   -3.2723   -2.3992    0.0000 C   0  0  0  0  0  0  0  0  0  0  0  0
    1.0015   -0.0000    0.0000 C   0  0  0  0  0  0  0  0  0  0  0  0
    1.5883   -0.8097    0.0000 N   0  0  0  0  0  0  0  0  0  0  0  0
    2.5830   -0.7064    0.0000 S   0  0  0  0  0  0  0  0  0  0  0  0
    2.6863   -1.7010    0.0000 O   0  0  0  0  0  0  0  0  0  0  0  0
    2.4796    0.2883    0.0000 O   0  0  0  0  0  0  0  0  0  0  0  0
    3.5776   -0.6030    0.0000 C   0  0  0  0  0  0  0  0  0  0  0  0
    3.9848    0.3160    0.0000 C   0  0  0  0  0  0  0  0  0  0  0  0
    4.9795    0.4194    0.0000 C   0  0  0  0  0  0  0  0  0  0  0  0
    5.5711   -0.3869    0.0000 C   0  0  0  0  0  0  0  0  0  0  0  0
    6.5653   -0.2792    0.0000 C   0  0  0  0  0  0  0  0  0  0  0  0
    5.1639   -1.3059    0.0000 C   0  0  0  0  0  0  0  0  0  0  0  0
    4.1651   -1.4186    0.0000 C   0  0  0  0  0  0  0  0  0  0  0  0
  1  2  1  0
  2  3  1  0
  3 17  1  0
  3  4  1  0
  4  5  2  0
  5  6  1  0
  5  7  1  0
  7  8  1  0
  8  9  2  0
  8 10  1  0
 10 11  1  0
 11 12  1  1
 11 13  1  0
 13 14  1  0
 13 15  1  0
 13 16  1  0
  7 17  2  0
 17 18  1  0
 18 19  1  0
 19 20  2  0
 19 21  2  0
 19 22  1  0
 22 28  1  0
 22 23  2  0
 23 24  1  0
 24 25  2  0
 25 26  1  0
 25 27  1  0
 27 28  2  0
M  END
>  <SMILES>  (331) 
CCn1nc(C)c(C(=O)N[C@@H](C)C(C)(C)C)c1NS(=O)(=O)c1ccc(C)cc1

>  <CollectionName>  (331) 
chembl

>  <LOG PLASMA PROTEIN BINDING (RAT) (% unbound)>  (331) 
0.67851837904

>  <Internal ID>  (331) 


>  <Source>  (331) 
AstraZeneca

$$$$
CHEMBL1934413
     RDKit          2D

 30 32  0  0  1  0  0  0  0  0999 V2000
   -1.7666   -2.4247    0.0000 C   0  0  0  0  0  0  0  0  0  0  0  0
   -2.1721   -1.5106    0.0000 C   0  0  0  0  0  0  0  0  0  0  0  0
   -1.5832   -0.7024    0.0000 N   0  0  0  0  0  0  0  0  0  0  0  0
   -0.5889   -0.8082    0.0000 C   0  0  0  0  0  0  0  0  0  0  0  0
   -0.1833   -1.7223    0.0000 O   0  0  0  0  0  0  0  0  0  0  0  0
    0.0000    0.0000    0.0000 C   0  0  0  0  0  0  0  0  0  0  0  0
   -0.3065    0.9519    0.0000 C   0  0  0  0  0  0  0  0  0  0  0  0
   -1.2577    1.2605    0.0000 C   0  0  0  0  0  0  0  0  0  0  0  0
    0.5008    1.5428    0.0000 N   0  0  0  0  0  0  0  0  0  0  0  0
    1.3133    0.9519    0.0000 N   0  0  0  0  0  0  0  0  0  0  0  0
    2.2648    1.2596    0.0000 C   0  0  0  0  0  0  0  0  0  0  0  0
    3.1552    0.8043    0.0000 C   0  0  0  0  0  0  0  0  0  0  0  0
    3.6104    1.6947    0.0000 C   0  0  0  0  0  0  0  0  0  0  0  0
    2.7201    2.1499    0.0000 C   0  0  0  0  0  0  0  0  0  0  0  0
    1.0015   -0.0000    0.0000 C   0  0  0  0  0  0  0  0  0  0  0  0
    2.0284   -1.4170    0.0000 N   0  0  0  0  0  0  0  0  0  0  0  0
    3.0231   -1.3137    0.0000 S   0  0  0  0  0  0  0  0  0  0  0  0
    2.9197   -0.3190    0.0000 O   0  0  0  0  0  0  0  0  0  0  0  0
    4.0177   -1.2103    0.0000 O   0  0  0  0  0  0  0  0  0  0  0  0
    3.1264   -2.3083    0.0000 C   0  0  0  0  0  0  0  0  0  0  0  0
    4.0454   -2.7155    0.0000 C   0  0  0  0  0  0  0  0  0  0  0  0
    4.1488   -3.7102    0.0000 C   0  0  0  0  0  0  0  0  0  0  0  0
    3.3425   -4.3018    0.0000 C   0  0  0  0  0  0  0  0  0  0  0  0
    3.4503   -5.2960    0.0000 C   0  0  0  0  0  0  0  0  0  0  0  0
    2.4235   -3.8945    0.0000 C   0  0  0  0  0  0  0  0  0  0  0  0
    2.3108   -2.8957    0.0000 C   0  0  0  0  0  0  0  0  0  0  0  0
   -3.1665   -1.4048    0.0000 C   0  0  0  0  0  0  0  0  0  0  0  0
   -4.1609   -1.2989    0.0000 C   0  0  0  0  0  0  0  0  0  0  0  0
   -3.0606   -0.4104    0.0000 C   0  0  0  0  0  0  0  0  0  0  0  0
   -3.2723   -2.3992    0.0000 C   0  0  0  0  0  0  0  0  0  0  0  0
  2  1  1  1
  2  3  1  0
  3  4  1  0
  4  5  2  0
  4  6  1  0
  6 15  2  0
  6  7  1  0
  7  8  1  0
  7  9  2  0
  9 10  1  0
 10 11  1  0
 11 14  1  0
 11 12  1  0
 12 13  1  0
 13 14  1  0
 10 15  1  0
 15 16  1  0
 16 17  1  0
 17 18  2  0
 17 19  2  0
 17 20  1  0
 20 26  1  0
 20 21  2  0
 21 22  1  0
 22 23  2  0
 23 24  1  0
 23 25  1  0
 25 26  2  0
  2 27  1  0
 27 28  1  0
 27 29  1  0
 27 30  1  0
M  END
>  <SMILES>  (332) 
Cc1ccc(S(=O)(=O)Nc2c(C(=O)N[C@@H](C)C(C)(C)C)c(C)nn2C2CCC2)cc1

>  <CollectionName>  (332) 
chembl

>  <LOG PLASMA PROTEIN BINDING (RAT) (% unbound)>  (332) 
0.320146286111

>  <Internal ID>  (332) 


>  <Source>  (332) 
AstraZeneca

$$$$
CHEMBL1934415
     RDKit          2D

 32 34  0  0  1  0  0  0  0  0999 V2000
   -2.2082   -3.0309    0.0000 C   0  0  0  0  0  0  0  0  0  0  0  0
   -2.6137   -2.1168    0.0000 C   0  0  0  0  0  0  0  0  0  0  0  0
   -2.0249   -1.3086    0.0000 N   0  0  0  0  0  0  0  0  0  0  0  0
   -1.0305   -1.4144    0.0000 C   0  0  0  0  0  0  0  0  0  0  0  0
   -0.6250   -2.3285    0.0000 O   0  0  0  0  0  0  0  0  0  0  0  0
    0.0000    0.0000    0.0000 C   0  0  0  0  0  0  0  0  0  0  0  0
   -0.3065    0.9519    0.0000 C   0  0  0  0  0  0  0  0  0  0  0  0
   -1.2577    1.2605    0.0000 C   0  0  0  0  0  0  0  0  0  0  0  0
    0.5008    1.5428    0.0000 N   0  0  0  0  0  0  0  0  0  0  0  0
    1.3133    0.9519    0.0000 N   0  0  0  0  0  0  0  0  0  0  0  0
    2.2648    1.2596    0.0000 C   0  0  0  0  0  0  0  0  0  0  0  0
    2.4723    2.2431    0.0000 C   0  0  0  0  0  0  0  0  0  0  0  0
    3.4238    2.5508    0.0000 C   0  0  0  0  0  0  0  0  0  0  0  0
    4.1699    1.8850    0.0000 C   0  0  0  0  0  0  0  0  0  0  0  0
    3.9624    0.9014    0.0000 C   0  0  0  0  0  0  0  0  0  0  0  0
    3.0088    0.5837    0.0000 C   0  0  0  0  0  0  0  0  0  0  0  0
    1.0015   -0.0000    0.0000 C   0  0  0  0  0  0  0  0  0  0  0  0
    2.0284   -1.4170    0.0000 N   0  0  0  0  0  0  0  0  0  0  0  0
    1.6206   -2.3301    0.0000 S   0  0  0  0  0  0  0  0  0  0  0  0
    2.5337   -2.7379    0.0000 O   0  0  0  0  0  0  0  0  0  0  0  0
    0.7076   -1.9222    0.0000 O   0  0  0  0  0  0  0  0  0  0  0  0
    1.2128   -3.2431    0.0000 C   0  0  0  0  0  0  0  0  0  0  0  0
    0.2127   -3.3441    0.0000 C   0  0  0  0  0  0  0  0  0  0  0  0
   -0.1952   -4.2571    0.0000 C   0  0  0  0  0  0  0  0  0  0  0  0
    0.3869   -5.0703    0.0000 C   0  0  0  0  0  0  0  0  0  0  0  0
   -0.0250   -5.9815    0.0000 C   0  0  0  0  0  0  0  0  0  0  0  0
    1.3870   -4.9694    0.0000 C   0  0  0  0  0  0  0  0  0  0  0  0
    1.8050   -4.0553    0.0000 C   0  0  0  0  0  0  0  0  0  0  0  0
   -3.6081   -2.0110    0.0000 C   0  0  0  0  0  0  0  0  0  0  0  0
   -4.6025   -1.9051    0.0000 C   0  0  0  0  0  0  0  0  0  0  0  0
   -3.5023   -1.0166    0.0000 C   0  0  0  0  0  0  0  0  0  0  0  0
   -3.7140   -3.0053    0.0000 C   0  0  0  0  0  0  0  0  0  0  0  0
  2  1  1  1
  2  3  1  0
  3  4  1  0
  4  5  2  0
  4  6  1  0
  6 17  2  0
  6  7  1  0
  7  8  1  0
  7  9  2  0
  9 10  1  0
 10 11  1  0
 11 16  1  0
 11 12  1  0
 12 13  1  0
 13 14  1  0
 14 15  1  0
 15 16  1  0
 10 17  1  0
 17 18  1  0
 18 19  1  0
 19 20  2  0
 19 21  2  0
 19 22  1  0
 22 28  1  0
 22 23  2  0
 23 24  1  0
 24 25  2  0
 25 26  1  0
 25 27  1  0
 27 28  2  0
  2 29  1  0
 29 30  1  0
 29 31  1  0
 29 32  1  0
M  END
>  <SMILES>  (333) 
Cc1ccc(S(=O)(=O)Nc2c(C(=O)N[C@@H](C)C(C)(C)C)c(C)nn2C2CCCCC2)cc1

>  <CollectionName>  (333) 
chembl

>  <LOG PLASMA PROTEIN BINDING (RAT) (% unbound)>  (333) 
0.563481085394

>  <Internal ID>  (333) 


>  <Source>  (333) 
AstraZeneca

$$$$
CHEMBL182997
     RDKit          2D

 26 27  0  0  1  0  0  0  0  0999 V2000
   -0.3706    5.0415    0.0000 C   0  0  0  0  0  0  0  0  0  0  0  0
   -0.3690    4.0415    0.0000 C   0  0  0  0  0  0  0  0  0  0  0  0
   -1.3690    4.0399    0.0000 C   0  0  0  0  0  0  0  0  0  0  0  0
    0.6310    4.0430    0.0000 C   0  0  0  0  0  0  0  0  0  0  0  0
   -0.3675    3.0415    0.0000 C   0  0  0  0  0  0  0  0  0  0  0  0
   -1.2328    2.5402    0.0000 O   0  0  0  0  0  0  0  0  0  0  0  0
    0.4993    2.5428    0.0000 C   0  0  0  0  0  0  0  0  0  0  0  0
    1.3645    3.0441    0.0000 O   0  0  0  0  0  0  0  0  0  0  0  0
    0.5008    1.5428    0.0000 N   0  0  0  0  0  0  0  0  0  0  0  0
   -0.3065    0.9519    0.0000 C   0  0  0  0  0  0  0  0  0  0  0  0
    0.0000    0.0000    0.0000 C   0  0  0  0  0  0  0  0  0  0  0  0
    1.0015    0.0000    0.0000 C   0  0  0  0  0  0  0  0  0  0  0  0
    1.3133    0.9519    0.0000 C   0  0  0  0  0  0  0  0  0  0  0  0
    2.2648    1.2596    0.0000 C   0  0  0  0  0  0  0  0  0  0  0  0
    2.4741    2.2374    0.0000 O   0  0  0  0  0  0  0  0  0  0  0  0
    3.0070    0.5894    0.0000 N   0  0  0  0  0  0  0  0  0  0  0  0
    3.9585    0.8970    0.0000 C   0  0  0  0  0  0  0  0  0  0  0  0
    4.7007    0.2268    0.0000 C   0  0  0  0  0  0  0  0  0  0  0  0
    4.4874   -0.7554    0.0000 C   0  0  0  0  0  0  0  0  0  0  0  0
    5.2393   -1.4224    0.0000 C   0  0  0  0  0  0  0  0  0  0  0  0
    5.0358   -2.4015    0.0000 Cl  0  0  0  0  0  0  0  0  0  0  0  0
    6.1949   -1.1103    0.0000 C   0  0  0  0  0  0  0  0  0  0  0  0
    6.3984   -0.1313    0.0000 C   0  0  0  0  0  0  0  0  0  0  0  0
    5.6562    0.5389    0.0000 C   0  0  0  0  0  0  0  0  0  0  0  0
    5.8640    1.5171    0.0000 C   0  0  0  0  0  0  0  0  0  0  0  0
    5.1208    2.1862    0.0000 N   0  0  0  0  0  0  0  0  0  0  0  0
  1  2  1  0
  2  3  1  0
  2  4  1  0
  2  5  1  0
  5  6  1  6
  5  7  1  0
  7  8  2  0
  7  9  1  0
  9 13  1  0
  9 10  1  0
 10 11  1  0
 11 12  1  0
 12 13  1  0
 13 14  1  6
 14 15  2  0
 14 16  1  0
 16 17  1  0
 17 18  1  0
 18 24  1  0
 18 19  2  0
 19 20  1  0
 20 21  1  0
 20 22  2  0
 22 23  1  0
 23 24  2  0
 24 25  1  0
 25 26  1  0
M  END
>  <SMILES>  (334) 
CC(C)(C)[C@@H](O)C(=O)N1CCC[C@H]1C(=O)NCc1cc(Cl)ccc1CN

>  <CollectionName>  (334) 
chembl

>  <LOG PLASMA PROTEIN BINDING (RAT) (% unbound)>  (334) 
1.69897000434

>  <Internal ID>  (334) 


>  <Source>  (334) 
AstraZeneca

$$$$
CHEMBL32
     RDKit          2D

 29 33  0  0  1  0  0  0  0  0999 V2000
    0.0047    3.0185    0.0000 C   0  0  0  0  0  0  0  0  0  0  0  0
    0.8707    2.5185    0.0000 O   0  0  0  0  0  0  0  0  0  0  0  0
    0.8707    1.5185    0.0000 C   0  0  0  0  0  0  0  0  0  0  0  0
    0.0000    1.0089    0.0000 C   0  0  0  0  0  0  0  0  0  0  0  0
   -0.8675    1.5063    0.0000 N   0  0  0  0  0  0  0  0  0  0  0  0
   -1.7894    1.0926    0.0000 C   0  0  0  0  0  0  0  0  0  0  0  0
   -2.4675    1.8416    0.0000 C   0  0  0  0  0  0  0  0  0  0  0  0
   -3.4736    1.8517    0.0000 C   0  0  0  0  0  0  0  0  0  0  0  0
   -3.9726    2.7183    0.0000 C   0  0  0  0  0  0  0  0  0  0  0  0
   -3.4688    3.5887    0.0000 C   0  0  0  0  0  0  0  0  0  0  0  0
   -2.4659    3.5923    0.0000 N   0  0  0  0  0  0  0  0  0  0  0  0
   -1.9649    2.7180    0.0000 C   0  0  0  0  0  0  0  0  0  0  0  0
   -0.9761    2.5108    0.0000 C   0  0  0  0  0  0  0  0  0  0  0  0
    0.0000    0.0000    0.0000 C   0  0  0  0  0  0  0  0  0  0  0  0
   -0.8653   -0.5013    0.0000 F   0  0  0  0  0  0  0  0  0  0  0  0
    0.8707   -0.4993    0.0000 C   0  0  0  0  0  0  0  0  0  0  0  0
    1.7371   -0.0000    0.0000 C   0  0  0  0  0  0  0  0  0  0  0  0
    2.6039   -0.5053    0.0000 C   0  0  0  0  0  0  0  0  0  0  0  0
    2.5983   -1.5053    0.0000 O   0  0  0  0  0  0  0  0  0  0  0  0
    3.4805   -0.0073    0.0000 C   0  0  0  0  0  0  0  0  0  0  0  0
    3.4848    1.0014    0.0000 C   0  0  0  0  0  0  0  0  0  0  0  0
    2.6125    1.5125    0.0000 N   0  0  0  0  0  0  0  0  0  0  0  0
    2.6154    2.5125    0.0000 C   0  0  0  0  0  0  0  0  0  0  0  0
    3.1179    3.3792    0.0000 C   0  0  0  0  0  0  0  0  0  0  0  0
    2.1179    3.3821    0.0000 C   0  0  0  0  0  0  0  0  0  0  0  0
    1.7414    1.0089    0.0000 C   0  0  0  0  0  0  0  0  0  0  0  0
    4.3437   -0.5122    0.0000 C   0  0  0  0  0  0  0  0  0  0  0  0
    4.3381   -1.5121    0.0000 O   0  0  0  0  0  0  0  0  0  0  0  0
    5.2125   -0.0170    0.0000 O   0  0  0  0  0  0  0  0  0  0  0  0
  1  2  1  0
  2  3  1  0
  3 26  2  0
  3  4  1  0
  4  5  1  0
  5 13  1  0
  5  6  1  0
  7  6  1  6
  7 12  1  0
  7  8  1  0
  8  9  1  0
  9 10  1  0
 10 11  1  0
 11 12  1  0
 12 13  1  6
  4 14  2  0
 14 15  1  0
 14 16  1  0
 16 17  2  0
 17 26  1  0
 17 18  1  0
 18 19  2  0
 18 20  1  0
 20 21  2  0
 21 22  1  0
 22 23  1  0
 23 25  1  0
 23 24  1  0
 24 25  1  0
 22 26  1  0
 20 27  1  0
 27 28  2  0
 27 29  1  0
M  END
>  <SMILES>  (335) 
COc1c(N2C[C@@H]3CCCN[C@@H]3C2)c(F)cc2c(=O)c(C(=O)O)cn(C3CC3)c12

>  <CollectionName>  (335) 
chembl

>  <LOG PLASMA PROTEIN BINDING (RAT) (% unbound)>  (335) 
1.81677141233

>  <Internal ID>  (335) 


>  <Source>  (335) 
AstraZeneca

$$$$
CHEMBL645
     RDKit          2D

 23 23  0  0  1  0  0  0  0  0999 V2000
    7.7986    1.4873    0.0000 C   0  0  0  0  0  0  0  0  0  0  0  0
    6.9311    0.9899    0.0000 C   0  0  0  0  0  0  0  0  0  0  0  0
    6.9282   -0.0101    0.0000 C   0  0  0  0  0  0  0  0  0  0  0  0
    6.0666    1.4924    0.0000 N   0  0  0  0  0  0  0  0  0  0  0  0
    5.1991    0.9950    0.0000 C   0  0  0  0  0  0  0  0  0  0  0  0
    4.3345    1.4975    0.0000 C   0  0  0  0  0  0  0  0  0  0  0  0
    4.3375    2.4975    0.0000 O   0  0  0  0  0  0  0  0  0  0  0  0
    3.4670    1.0001    0.0000 C   0  0  0  0  0  0  0  0  0  0  0  0
    2.6025    1.5026    0.0000 O   0  0  0  0  0  0  0  0  0  0  0  0
    1.7350    1.0052    0.0000 C   0  0  0  0  0  0  0  0  0  0  0  0
    1.7350    0.0000    0.0000 C   0  0  0  0  0  0  0  0  0  0  0  0
    0.8675   -0.4975    0.0000 C   0  0  0  0  0  0  0  0  0  0  0  0
    0.0000    0.0000    0.0000 C   0  0  0  0  0  0  0  0  0  0  0  0
   -0.8653   -0.5013    0.0000 C   0  0  0  0  0  0  0  0  0  0  0  0
   -1.7320   -0.0025    0.0000 O   0  0  0  0  0  0  0  0  0  0  0  0
   -2.5973   -0.5038    0.0000 C   0  0  0  0  0  0  0  0  0  0  0  0
   -3.4641   -0.0050    0.0000 C   0  0  0  0  0  0  0  0  0  0  0  0
   -4.3294   -0.5063    0.0000 O   0  0  0  0  0  0  0  0  0  0  0  0
   -5.1961   -0.0075    0.0000 C   0  0  0  0  0  0  0  0  0  0  0  0
   -6.0614   -0.5088    0.0000 C   0  0  0  0  0  0  0  0  0  0  0  0
   -5.1976    0.9925    0.0000 C   0  0  0  0  0  0  0  0  0  0  0  0
   -0.0000    1.0052    0.0000 C   0  0  0  0  0  0  0  0  0  0  0  0
    0.8675    1.5129    0.0000 C   0  0  0  0  0  0  0  0  0  0  0  0
  1  2  1  0
  2  3  1  0
  2  4  1  0
  4  5  1  0
  5  6  1  0
  6  7  1  0
  6  8  1  0
  8  9  1  0
  9 10  1  0
 10 23  2  0
 10 11  1  0
 11 12  2  0
 12 13  1  0
 13 14  1  0
 14 15  1  0
 15 16  1  0
 16 17  1  0
 17 18  1  0
 18 19  1  0
 19 20  1  0
 19 21  1  0
 13 22  2  0
 22 23  1  0
M  END
>  <SMILES>  (336) 
CC(C)NCC(O)COc1ccc(COCCOC(C)C)cc1

>  <CollectionName>  (336) 
chembl

>  <LOG PLASMA PROTEIN BINDING (RAT) (% unbound)>  (336) 
1.88541776511

>  <Internal ID>  (336) 


>  <Source>  (336) 
AstraZeneca

$$$$
CHEMBL148674
     RDKit          2D

 28 30  0  0  0  0  0  0  0  0999 V2000
    4.7857    1.3684    0.0000 C   0  0  0  0  0  0  0  0  0  0  0  0
    4.2858    0.5024    0.0000 C   0  0  0  0  0  0  0  0  0  0  0  0
    3.2858    0.5023    0.0000 C   0  0  0  0  0  0  0  0  0  0  0  0
    2.6938   -0.3125    0.0000 C   0  0  0  0  0  0  0  0  0  0  0  0
    3.0028   -1.2636    0.0000 C   0  0  0  0  0  0  0  0  0  0  0  0
    2.3336   -2.0067    0.0000 O   0  0  0  0  0  0  0  0  0  0  0  0
    3.9809   -1.4715    0.0000 C   0  0  0  0  0  0  0  0  0  0  0  0
    4.6501   -0.7284    0.0000 O   0  0  0  0  0  0  0  0  0  0  0  0
    4.2899   -2.4226    0.0000 N   0  0  0  0  0  0  0  0  0  0  0  0
    1.7360   -0.0012    0.0000 C   0  0  0  0  0  0  0  0  0  0  0  0
    0.8680   -0.4978    0.0000 C   0  0  0  0  0  0  0  0  0  0  0  0
    0.8675   -1.4978    0.0000 O   0  0  0  0  0  0  0  0  0  0  0  0
    0.0012   -1.9973    0.0000 C   0  0  0  0  0  0  0  0  0  0  0  0
    0.0007   -2.9973    0.0000 C   0  0  0  0  0  0  0  0  0  0  0  0
    0.8664   -3.4978    0.0000 O   0  0  0  0  0  0  0  0  0  0  0  0
   -0.8656   -3.4969    0.0000 O   0  0  0  0  0  0  0  0  0  0  0  0
    0.0000    0.0000    0.0000 C   0  0  0  0  0  0  0  0  0  0  0  0
    0.0000    1.0058    0.0000 C   0  0  0  0  0  0  0  0  0  0  0  0
    0.8680    1.5138    0.0000 C   0  0  0  0  0  0  0  0  0  0  0  0
    1.7360    1.0058    0.0000 C   0  0  0  0  0  0  0  0  0  0  0  0
    2.6938    1.3169    0.0000 N   0  0  0  0  0  0  0  0  0  0  0  0
    3.0028    2.2680    0.0000 C   0  0  0  0  0  0  0  0  0  0  0  0
    2.3337    3.0111    0.0000 C   0  0  0  0  0  0  0  0  0  0  0  0
    2.6471    3.9662    0.0000 C   0  0  0  0  0  0  0  0  0  0  0  0
    1.9780    4.7094    0.0000 C   0  0  0  0  0  0  0  0  0  0  0  0
    0.9986    4.5072    0.0000 C   0  0  0  0  0  0  0  0  0  0  0  0
    0.6852    3.5521    0.0000 C   0  0  0  0  0  0  0  0  0  0  0  0
    1.3511    2.7992    0.0000 C   0  0  0  0  0  0  0  0  0  0  0  0
  1  2  1  0
  2  3  1  0
  3 21  1  0
  3  4  2  0
  4  5  1  0
  5  6  2  0
  5  7  1  0
  7  8  2  0
  7  9  1  0
  4 10  1  0
 10 20  2  0
 10 11  1  0
 11 12  1  0
 12 13  1  0
 13 14  1  0
 14 15  2  0
 14 16  1  0
 11 17  2  0
 17 18  1  0
 18 19  2  0
 19 20  1  0
 20 21  1  0
 21 22  1  0
 22 23  1  0
 23 28  1  0
 23 24  2  0
 24 25  1  0
 25 26  2  0
 26 27  1  0
 27 28  2  0
M  END
>  <SMILES>  (337) 
CCc1c(C(=O)C(N)=O)c2c(OCC(=O)O)cccc2n1Cc1ccccc1

>  <CollectionName>  (337) 
chembl

>  <LOG PLASMA PROTEIN BINDING (RAT) (% unbound)>  (337) 
0.885361220032

>  <Internal ID>  (337) 


>  <Source>  (337) 
AstraZeneca

$$$$
CHEMBL165790
     RDKit          2D

 21 23  0  0  0  0  0  0  0  0999 V2000
   -1.7290    0.0005    0.0000 C   0  0  0  0  0  0  0  0  0  0  0  0
   -1.7320    1.0005    0.0000 C   0  0  0  0  0  0  0  0  0  0  0  0
   -2.5996    1.4979    0.0000 C   0  0  0  0  0  0  0  0  0  0  0  0
   -0.8675    1.5031    0.0000 O   0  0  0  0  0  0  0  0  0  0  0  0
   -0.0000    1.0057    0.0000 C   0  0  0  0  0  0  0  0  0  0  0  0
    0.0000    0.0000    0.0000 C   0  0  0  0  0  0  0  0  0  0  0  0
    0.8680   -0.4978    0.0000 C   0  0  0  0  0  0  0  0  0  0  0  0
    1.7360   -0.0012    0.0000 C   0  0  0  0  0  0  0  0  0  0  0  0
    2.6026   -0.5032    0.0000 C   0  0  0  0  0  0  0  0  0  0  0  0
    2.5999   -1.5032    0.0000 O   0  0  0  0  0  0  0  0  0  0  0  0
    3.4761   -0.0036    0.0000 C   0  0  0  0  0  0  0  0  0  0  0  0
    3.4774    1.0034    0.0000 C   0  0  0  0  0  0  0  0  0  0  0  0
    2.6052    1.5109    0.0000 O   0  0  0  0  0  0  0  0  0  0  0  0
    1.7374    1.0057    0.0000 C   0  0  0  0  0  0  0  0  0  0  0  0
    0.8680    1.5138    0.0000 C   0  0  0  0  0  0  0  0  0  0  0  0
    4.3408   -0.5059    0.0000 C   0  0  0  0  0  0  0  0  0  0  0  0
    5.2112   -0.0031    0.0000 C   0  0  0  0  0  0  0  0  0  0  0  0
    6.0759   -0.5054    0.0000 C   0  0  0  0  0  0  0  0  0  0  0  0
    6.0791   -1.5054    0.0000 C   0  0  0  0  0  0  0  0  0  0  0  0
    5.2087   -2.0082    0.0000 C   0  0  0  0  0  0  0  0  0  0  0  0
    4.3351   -1.5110    0.0000 C   0  0  0  0  0  0  0  0  0  0  0  0
  1  2  1  0
  2  3  1  0
  2  4  1  0
  4  5  1  0
  5 15  2  0
  5  6  1  0
  6  7  2  0
  7  8  1  0
  8 14  2  0
  8  9  1  0
  9 10  2  0
  9 11  1  0
 11 12  2  0
 12 13  1  0
 13 14  1  0
 14 15  1  0
 11 16  1  0
 16 21  1  0
 16 17  2  0
 17 18  1  0
 18 19  2  0
 19 20  1  0
 20 21  2  0
M  END
>  <SMILES>  (338) 
CC(C)Oc1ccc2c(=O)c(-c3ccccc3)coc2c1

>  <CollectionName>  (338) 
chembl

>  <LOG PLASMA PROTEIN BINDING (RAT) (% unbound)>  (338) 
-0.251811972994

>  <Internal ID>  (338) 


>  <Source>  (338) 
AstraZeneca

$$$$
CHEMBL522771
     RDKit          2D

 29 32  0  0  0  0  0  0  0  0999 V2000
    1.4764   -2.1110    0.0000 C   0  0  0  0  0  0  0  0  0  0  0  0
    1.6772   -3.0906    0.0000 C   0  0  0  0  0  0  0  0  0  0  0  0
    1.0026   -3.8308    0.0000 N   0  0  0  0  0  0  0  0  0  0  0  0
    1.4961   -4.7025    0.0000 C   0  0  0  0  0  0  0  0  0  0  0  0
    2.4801   -4.5000    0.0000 S   0  0  0  0  0  0  0  0  0  0  0  0
    2.5872   -3.5053    0.0000 C   0  0  0  0  0  0  0  0  0  0  0  0
    3.4560   -3.0101    0.0000 C   0  0  0  0  0  0  0  0  0  0  0  0
    4.3192   -3.5149    0.0000 O   0  0  0  0  0  0  0  0  0  0  0  0
    3.4615   -2.0101    0.0000 N   0  0  0  0  0  0  0  0  0  0  0  0
    2.5983   -1.5053    0.0000 C   0  0  0  0  0  0  0  0  0  0  0  0
    2.6039   -0.5053    0.0000 C   0  0  0  0  0  0  0  0  0  0  0  0
    3.4805   -0.0073    0.0000 C   0  0  0  0  0  0  0  0  0  0  0  0
    3.4848    1.0014    0.0000 C   0  0  0  0  0  0  0  0  0  0  0  0
    4.3535    1.4968    0.0000 O   0  0  0  0  0  0  0  0  0  0  0  0
    2.6125    1.5125    0.0000 N   0  0  0  0  0  0  0  0  0  0  0  0
    1.7414    1.0089    0.0000 C   0  0  0  0  0  0  0  0  0  0  0  0
    0.8707    1.5185    0.0000 C   0  0  0  0  0  0  0  0  0  0  0  0
    0.8707    2.5185    0.0000 F   0  0  0  0  0  0  0  0  0  0  0  0
    0.0000    1.0089    0.0000 C   0  0  0  0  0  0  0  0  0  0  0  0
    0.0000    0.0000    0.0000 C   0  0  0  0  0  0  0  0  0  0  0  0
    0.8707   -0.4993    0.0000 C   0  0  0  0  0  0  0  0  0  0  0  0
    1.7371   -0.0000    0.0000 C   0  0  0  0  0  0  0  0  0  0  0  0
    4.3303   -1.5149    0.0000 C   0  0  0  0  0  0  0  0  0  0  0  0
    5.1966   -2.0249    0.0000 C   0  0  0  0  0  0  0  0  0  0  0  0
    6.0654   -1.5298    0.0000 C   0  0  0  0  0  0  0  0  0  0  0  0
    6.0768   -0.5298    0.0000 C   0  0  0  0  0  0  0  0  0  0  0  0
    5.2106   -0.0198    0.0000 C   0  0  0  0  0  0  0  0  0  0  0  0
    5.2221    0.9801    0.0000 Cl  0  0  0  0  0  0  0  0  0  0  0  0
    4.3330   -0.5098    0.0000 C   0  0  0  0  0  0  0  0  0  0  0  0
  1  2  1  0
  2  6  2  0
  2  3  1  0
  3  4  2  0
  4  5  1  0
  5  6  1  0
  6  7  1  0
  7  8  2  0
  7  9  1  0
  9 10  1  0
 10 11  1  0
 11 22  1  0
 11 12  2  0
 12 13  1  0
 13 14  2  0
 13 15  1  0
 15 16  1  0
 16 22  2  0
 16 17  1  0
 17 18  1  0
 17 19  2  0
 19 20  1  0
 20 21  2  0
 21 22  1  0
  9 23  1  0
 23 29  1  0
 23 24  2  0
 24 25  1  0
 25 26  2  0
 26 27  1  0
 27 28  1  0
 27 29  2  0
M  END
>  <SMILES>  (339) 
Cc1ncsc1C(=O)N(Cc1cc(=O)[nH]c2c(F)cccc12)c1cccc(Cl)c1

>  <CollectionName>  (339) 
chembl

>  <LOG PLASMA PROTEIN BINDING (RAT) (% unbound)>  (339) 
0.922206277439

>  <Internal ID>  (339) 


>  <Source>  (339) 
AstraZeneca

$$$$
CHEMBL1835918
     RDKit          2D

 25 28  0  0  0  0  0  0  0  0999 V2000
   11.6058   -3.4305    0.0000 C   0  0  0  0  0  0  0  0  0  0  0  0
   10.6117   -3.5396    0.0000 C   0  0  0  0  0  0  0  0  0  0  0  0
   10.1181   -4.4097    0.0000 O   0  0  0  0  0  0  0  0  0  0  0  0
    9.1347   -4.2045    0.0000 N   0  0  0  0  0  0  0  0  0  0  0  0
    9.0283   -3.2086    0.0000 C   0  0  0  0  0  0  0  0  0  0  0  0
    9.9415   -2.7975    0.0000 N   0  0  0  0  0  0  0  0  0  0  0  0
    8.1608   -2.7112    0.0000 C   0  0  0  0  0  0  0  0  0  0  0  0
    8.1564   -1.7112    0.0000 C   0  0  0  0  0  0  0  0  0  0  0  0
    7.2910   -1.2099    0.0000 C   0  0  0  0  0  0  0  0  0  0  0  0
    6.4213   -1.7138    0.0000 C   0  0  0  0  0  0  0  0  0  0  0  0
    5.5560   -1.2126    0.0000 O   0  0  0  0  0  0  0  0  0  0  0  0
    4.6892   -1.7113    0.0000 C   0  0  0  0  0  0  0  0  0  0  0  0
    3.8239   -1.2101    0.0000 C   0  0  0  0  0  0  0  0  0  0  0  0
    2.8577   -1.4675    0.0000 C   0  0  0  0  0  0  0  0  0  0  0  0
    2.6003   -0.5013    0.0000 N   0  0  0  0  0  0  0  0  0  0  0  0
    3.5665   -0.2439    0.0000 C   0  0  0  0  0  0  0  0  0  0  0  0
    1.7350   -0.0000    0.0000 C   0  0  0  0  0  0  0  0  0  0  0  0
    0.8675   -0.4975    0.0000 C   0  0  0  0  0  0  0  0  0  0  0  0
    0.0000    0.0000    0.0000 C   0  0  0  0  0  0  0  0  0  0  0  0
    0.0000    1.0052    0.0000 C   0  0  0  0  0  0  0  0  0  0  0  0
   -0.8675    1.5026    0.0000 C   0  0  0  0  0  0  0  0  0  0  0  0
    0.8675    1.5129    0.0000 N   0  0  0  0  0  0  0  0  0  0  0  0
    1.7350    1.0052    0.0000 N   0  0  0  0  0  0  0  0  0  0  0  0
    6.4168   -2.7190    0.0000 C   0  0  0  0  0  0  0  0  0  0  0  0
    7.2910   -3.2151    0.0000 C   0  0  0  0  0  0  0  0  0  0  0  0
  1  2  1  0
  2  6  2  0
  2  3  1  0
  3  4  1  0
  4  5  2  0
  5  6  1  0
  5  7  1  0
  7 25  1  0
  7  8  2  0
  8  9  1  0
  9 10  2  0
 10 11  1  0
 11 12  1  0
 12 13  1  0
 13 16  1  0
 13 14  1  0
 14 15  1  0
 15 16  1  0
 15 17  1  0
 17 23  1  0
 17 18  2  0
 18 19  1  0
 19 20  2  0
 20 21  1  0
 20 22  1  0
 22 23  2  0
 10 24  1  0
 24 25  2  0
M  END
>  <SMILES>  (340) 
Cc1ccc(N2CC(COc3ccc(-c4noc(C)n4)cc3)C2)nn1

>  <CollectionName>  (340) 
chembl

>  <LOG PLASMA PROTEIN BINDING (RAT) (% unbound)>  (340) 
0.688419822003

>  <Internal ID>  (340) 


>  <Source>  (340) 
AstraZeneca

$$$$
CHEMBL1800659
     RDKit          2D

 34 36  0  0  0  0  0  0  0  0999 V2000
    5.1981    3.0138    0.0000 C   0  0  0  0  0  0  0  0  0  0  0  0
    5.1981    4.0138    0.0000 C   0  0  0  0  0  0  0  0  0  0  0  0
    4.3321    4.5138    0.0000 C   0  0  0  0  0  0  0  0  0  0  0  0
    4.3321    5.5138    0.0000 C   0  0  0  0  0  0  0  0  0  0  0  0
    3.4661    6.0138    0.0000 N   0  0  0  0  0  0  0  0  0  0  0  0
    2.6001    5.5138    0.0000 C   0  0  0  0  0  0  0  0  0  0  0  0
    2.6001    4.5138    0.0000 C   0  0  0  0  0  0  0  0  0  0  0  0
    1.7340    4.0138    0.0000 N   0  0  0  0  0  0  0  0  0  0  0  0
    1.7340    3.0138    0.0000 C   0  0  0  0  0  0  0  0  0  0  0  0
    0.8680    2.5138    0.0000 C   0  0  0  0  0  0  0  0  0  0  0  0
    0.8680    1.5138    0.0000 C   0  0  0  0  0  0  0  0  0  0  0  0
    0.0000    1.0058    0.0000 C   0  0  0  0  0  0  0  0  0  0  0  0
    0.0000    0.0000    0.0000 C   0  0  0  0  0  0  0  0  0  0  0  0
    0.8680   -0.4978    0.0000 C   0  0  0  0  0  0  0  0  0  0  0  0
    0.8675   -1.4978    0.0000 O   0  0  0  0  0  0  0  0  0  0  0  0
    1.7360   -0.0012    0.0000 C   0  0  0  0  0  0  0  0  0  0  0  0
    2.6938   -0.3125    0.0000 N   0  0  0  0  0  0  0  0  0  0  0  0
    3.2858    0.5023    0.0000 C   0  0  0  0  0  0  0  0  0  0  0  0
    4.2858    0.5024    0.0000 O   0  0  0  0  0  0  0  0  0  0  0  0
    2.6938    1.3169    0.0000 S   0  0  0  0  0  0  0  0  0  0  0  0
    1.7360    1.0058    0.0000 C   0  0  0  0  0  0  0  0  0  0  0  0
    3.4661    7.0138    0.0000 C   0  0  0  0  0  0  0  0  0  0  0  0
    2.6001    7.5138    0.0000 O   0  0  0  0  0  0  0  0  0  0  0  0
    4.3321    7.5138    0.0000 C   0  0  0  0  0  0  0  0  0  0  0  0
    4.3321    8.5138    0.0000 C   0  0  0  0  0  0  0  0  0  0  0  0
    5.1981    9.0138    0.0000 O   0  0  0  0  0  0  0  0  0  0  0  0
    5.1981   10.0138    0.0000 C   0  0  0  0  0  0  0  0  0  0  0  0
    6.0642   10.5138    0.0000 C   0  0  0  0  0  0  0  0  0  0  0  0
    6.0642   11.5138    0.0000 C   0  0  0  0  0  0  0  0  0  0  0  0
    5.1921   12.0138    0.0000 C   0  0  0  0  0  0  0  0  0  0  0  0
    5.1921   13.0139    0.0000 C   0  0  0  0  0  0  0  0  0  0  0  0
    6.0552   13.5189    0.0000 C   0  0  0  0  0  0  0  0  0  0  0  0
    6.9272   13.0189    0.0000 C   0  0  0  0  0  0  0  0  0  0  0  0
    6.9361   12.0138    0.0000 C   0  0  0  0  0  0  0  0  0  0  0  0
  1  2  1  0
  2  3  1  0
  3  4  1  0
  4  5  1  0
  5  6  1  0
  6  7  1  0
  7  8  1  0
  8  9  1  0
  9 10  1  0
 10 11  1  0
 11 21  1  0
 11 12  2  0
 12 13  1  0
 13 14  2  0
 14 15  1  0
 14 16  1  0
 16 21  2  0
 16 17  1  0
 17 18  1  0
 18 19  2  0
 18 20  1  0
 20 21  1  0
  5 22  1  0
 22 23  2  0
 22 24  1  0
 24 25  1  0
 25 26  1  0
 26 27  1  0
 27 28  1  0
 28 29  1  0
 29 34  1  0
 29 30  2  0
 30 31  1  0
 31 32  2  0
 32 33  1  0
 33 34  2  0
M  END
>  <SMILES>  (341) 
CCCCN(CCNCCc1ccc(O)c2[nH]c(=O)sc12)C(=O)CCOCCc1ccccc1

>  <CollectionName>  (341) 
chembl

>  <LOG PLASMA PROTEIN BINDING (RAT) (% unbound)>  (341) 
0.848189116991

>  <Internal ID>  (341) 


>  <Source>  (341) 
AstraZeneca

$$$$
CHEMBL1813048
     RDKit          2D

 37 40  0  0  0  0  0  0  0  0999 V2000
   -5.2020    5.0104    0.0000 C   0  0  0  0  0  0  0  0  0  0  0  0
   -4.3375    4.5078    0.0000 C   0  0  0  0  0  0  0  0  0  0  0  0
   -4.3404    3.5078    0.0000 O   0  0  0  0  0  0  0  0  0  0  0  0
   -3.4700    5.0052    0.0000 N   0  0  0  0  0  0  0  0  0  0  0  0
   -2.6054    4.5027    0.0000 C   0  0  0  0  0  0  0  0  0  0  0  0
   -1.7349    5.0053    0.0000 C   0  0  0  0  0  0  0  0  0  0  0  0
   -0.8703    4.5028    0.0000 C   0  0  0  0  0  0  0  0  0  0  0  0
   -0.8674    3.5027    0.0000 C   0  0  0  0  0  0  0  0  0  0  0  0
   -1.7379    3.0001    0.0000 C   0  0  0  0  0  0  0  0  0  0  0  0
   -1.7350    2.0001    0.0000 N   0  0  0  0  0  0  0  0  0  0  0  0
   -0.8675    1.5027    0.0000 C   0  0  0  0  0  0  0  0  0  0  0  0
   -0.8675    0.4975    0.0000 N   0  0  0  0  0  0  0  0  0  0  0  0
    0.0000    0.0000    0.0000 C   0  0  0  0  0  0  0  0  0  0  0  0
    0.8675    0.4975    0.0000 N   0  0  0  0  0  0  0  0  0  0  0  0
    0.8675    1.5027    0.0000 C   0  0  0  0  0  0  0  0  0  0  0  0
   -0.0000    2.0104    0.0000 N   0  0  0  0  0  0  0  0  0  0  0  0
    1.7350    2.0001    0.0000 N   0  0  0  0  0  0  0  0  0  0  0  0
    2.6070    1.5001    0.0000 C   0  0  0  0  0  0  0  0  0  0  0  0
    3.4790    2.0002    0.0000 C   0  0  0  0  0  0  0  0  0  0  0  0
    3.4790    3.0002    0.0000 C   0  0  0  0  0  0  0  0  0  0  0  0
    2.6159    3.5053    0.0000 C   0  0  0  0  0  0  0  0  0  0  0  0
    1.7439    3.0052    0.0000 C   0  0  0  0  0  0  0  0  0  0  0  0
    4.3465    3.4976    0.0000 O   0  0  0  0  0  0  0  0  0  0  0  0
    4.3495    4.4976    0.0000 C   0  0  0  0  0  0  0  0  0  0  0  0
    5.2170    4.9951    0.0000 C   0  0  0  0  0  0  0  0  0  0  0  0
    6.0823    4.4938    0.0000 C   0  0  0  0  0  0  0  0  0  0  0  0
    6.9519    4.9874    0.0000 C   0  0  0  0  0  0  0  0  0  0  0  0
    6.9564    5.9926    0.0000 C   0  0  0  0  0  0  0  0  0  0  0  0
    7.8260    6.4863    0.0000 O   0  0  0  0  0  0  0  0  0  0  0  0
    7.8334    7.4862    0.0000 C   0  0  0  0  0  0  0  0  0  0  0  0
    6.8334    7.4936    0.0000 F   0  0  0  0  0  0  0  0  0  0  0  0
    8.8334    7.4789    0.0000 F   0  0  0  0  0  0  0  0  0  0  0  0
    7.8407    8.4862    0.0000 F   0  0  0  0  0  0  0  0  0  0  0  0
    6.0911    6.5042    0.0000 C   0  0  0  0  0  0  0  0  0  0  0  0
    5.2214    6.0003    0.0000 C   0  0  0  0  0  0  0  0  0  0  0  0
   -2.6114    3.4976    0.0000 C   0  0  0  0  0  0  0  0  0  0  0  0
   -3.4774    2.9976    0.0000 C   0  0  0  0  0  0  0  0  0  0  0  0
  1  2  1  0
  2  3  2  0
  2  4  1  0
  4  5  1  0
  5 36  2  0
  5  6  1  0
  6  7  2  0
  7  8  1  0
  8  9  2  0
  9 10  1  0
 10 11  1  0
 11 16  1  0
 11 12  2  0
 12 13  1  0
 13 14  2  0
 14 15  1  0
 15 16  2  0
 15 17  1  0
 17 22  1  0
 17 18  1  0
 18 19  1  0
 19 20  1  0
 20 21  1  0
 21 22  1  0
 20 23  1  0
 23 24  1  0
 24 25  1  0
 25 35  1  0
 25 26  2  0
 26 27  1  0
 27 28  2  0
 28 29  1  0
 29 30  1  0
 30 31  1  0
 30 32  1  0
 30 33  1  0
 28 34  1  0
 34 35  2  0
  9 36  1  0
 36 37  1  0
M  END
>  <SMILES>  (342) 
CC(=O)Nc1cccc(Nc2ncnc(N3CCC(OCc4ccc(OC(F)(F)F)cc4)CC3)n2)c1C

>  <CollectionName>  (342) 
chembl

>  <LOG PLASMA PROTEIN BINDING (RAT) (% unbound)>  (342) 
-0.0222763947112

>  <Internal ID>  (342) 


>  <Source>  (342) 
AstraZeneca

$$$$
CHEMBL1818291
     RDKit          2D

 37 40  0  0  1  0  0  0  0  0999 V2000
   -4.3907   -8.4538    0.0000 C   0  0  0  0  0  0  0  0  0  0  0  0
   -3.5197   -7.9625    0.0000 C   0  0  0  0  0  0  0  0  0  0  0  0
   -4.0111   -7.0915    0.0000 C   0  0  0  0  0  0  0  0  0  0  0  0
   -3.0284   -8.8335    0.0000 C   0  0  0  0  0  0  0  0  0  0  0  0
   -2.6488   -7.4711    0.0000 O   0  0  0  0  0  0  0  0  0  0  0  0
   -2.6388   -6.4712    0.0000 C   0  0  0  0  0  0  0  0  0  0  0  0
   -3.4998   -5.9626    0.0000 O   0  0  0  0  0  0  0  0  0  0  0  0
   -1.7678   -5.9799    0.0000 N   0  0  0  0  0  0  0  0  0  0  0  0
   -1.7578   -4.9799    0.0000 C   0  0  0  0  0  0  0  0  0  0  0  0
   -0.8869   -4.4886    0.0000 C   0  0  0  0  0  0  0  0  0  0  0  0
   -0.8798   -3.4834    0.0000 C   0  0  0  0  0  0  0  0  0  0  0  0
   -0.0088   -2.9920    0.0000 C   0  0  0  0  0  0  0  0  0  0  0  0
    0.8552   -3.4956    0.0000 C   0  0  0  0  0  0  0  0  0  0  0  0
    1.7240   -3.0004    0.0000 C   0  0  0  0  0  0  0  0  0  0  0  0
    1.7295   -2.0004    0.0000 N   0  0  0  0  0  0  0  0  0  0  0  0
    2.5983   -1.5053    0.0000 C   0  0  0  0  0  0  0  0  0  0  0  0
    3.4615   -2.0101    0.0000 O   0  0  0  0  0  0  0  0  0  0  0  0
    2.6039   -0.5053    0.0000 C   0  0  0  0  0  0  0  0  0  0  0  0
    3.4805   -0.0073    0.0000 C   0  0  0  0  0  0  0  0  0  0  0  0
    3.4848    1.0014    0.0000 C   0  0  0  0  0  0  0  0  0  0  0  0
    2.6125    1.5125    0.0000 N   0  0  0  0  0  0  0  0  0  0  0  0
    1.7414    1.0089    0.0000 C   0  0  0  0  0  0  0  0  0  0  0  0
    0.8707    1.5185    0.0000 C   0  0  0  0  0  0  0  0  0  0  0  0
    0.0000    1.0089    0.0000 C   0  0  0  0  0  0  0  0  0  0  0  0
    0.0000    0.0000    0.0000 C   0  0  0  0  0  0  0  0  0  0  0  0
    0.8707   -0.4993    0.0000 C   0  0  0  0  0  0  0  0  0  0  0  0
    1.7371    0.0000    0.0000 C   0  0  0  0  0  0  0  0  0  0  0  0
    4.3535    1.4968    0.0000 C   0  0  0  0  0  0  0  0  0  0  0  0
    4.3559    2.5020    0.0000 C   0  0  0  0  0  0  0  0  0  0  0  0
    5.2246    2.9974    0.0000 C   0  0  0  0  0  0  0  0  0  0  0  0
    6.0909    2.4978    0.0000 C   0  0  0  0  0  0  0  0  0  0  0  0
    6.0885    1.4926    0.0000 C   0  0  0  0  0  0  0  0  0  0  0  0
    6.9548    0.9931    0.0000 C   0  0  0  0  0  0  0  0  0  0  0  0
    7.8205    1.4936    0.0000 N   0  0  0  0  0  0  0  0  0  0  0  0
    5.2198    0.9870    0.0000 C   0  0  0  0  0  0  0  0  0  0  0  0
    0.8481   -4.5008    0.0000 C   0  0  0  0  0  0  0  0  0  0  0  0
   -0.0230   -5.0024    0.0000 C   0  0  0  0  0  0  0  0  0  0  0  0
  1  2  1  0
  2  3  1  0
  2  4  1  0
  2  5  1  0
  5  6  1  0
  6  7  2  0
  6  8  1  0
  8  9  1  0
 10  9  1  6
 10 37  1  0
 10 11  1  0
 11 12  1  0
 12 13  1  0
 13 14  1  1
 14 15  1  0
 15 16  1  0
 16 17  2  0
 16 18  1  0
 18 27  1  0
 18 19  2  0
 19 20  1  0
 20 21  2  0
 21 22  1  0
 22 27  2  0
 22 23  1  0
 23 24  2  0
 24 25  1  0
 25 26  2  0
 26 27  1  0
 20 28  1  0
 28 35  1  0
 28 29  2  0
 29 30  1  0
 30 31  2  0
 31 32  1  0
 32 33  1  0
 33 34  1  0
 32 35  2  0
 13 36  1  0
 36 37  1  0
M  END
>  <SMILES>  (343) 
CC(C)(C)OC(=O)NC[C@H]1CC[C@H](CNC(=O)c2cc(-c3cccc(CN)c3)nc3ccccc23)CC1

>  <CollectionName>  (343) 
chembl

>  <LOG PLASMA PROTEIN BINDING (RAT) (% unbound)>  (343) 
0.232996110392

>  <Internal ID>  (343) 


>  <Source>  (343) 
AstraZeneca

$$$$
CHEMBL1818293
     RDKit          2D

 39 42  0  0  1  0  0  0  0  0999 V2000
    8.9236    1.4961    0.0000 C   0  0  0  0  0  0  0  0  0  0  0  0
    8.3314    0.6902    0.0000 N   0  0  0  0  0  0  0  0  0  0  0  0
    8.7332   -0.2255    0.0000 C   0  0  0  0  0  0  0  0  0  0  0  0
    7.3374    0.8002    0.0000 C   0  0  0  0  0  0  0  0  0  0  0  0
    6.9357    1.7159    0.0000 C   0  0  0  0  0  0  0  0  0  0  0  0
    5.9417    1.8259    0.0000 N   0  0  0  0  0  0  0  0  0  0  0  0
    5.2668    1.0858    0.0000 C   0  0  0  0  0  0  0  0  0  0  0  0
    4.3535    1.4968    0.0000 C   0  0  0  0  0  0  0  0  0  0  0  0
    4.4646    2.4906    0.0000 C   0  0  0  0  0  0  0  0  0  0  0  0
    5.4433    2.6981    0.0000 N   0  0  0  0  0  0  0  0  0  0  0  0
    3.4848    1.0014    0.0000 C   0  0  0  0  0  0  0  0  0  0  0  0
    3.4805   -0.0073    0.0000 C   0  0  0  0  0  0  0  0  0  0  0  0
    2.6039   -0.5053    0.0000 C   0  0  0  0  0  0  0  0  0  0  0  0
    2.5983   -1.5053    0.0000 C   0  0  0  0  0  0  0  0  0  0  0  0
    3.4615   -2.0101    0.0000 O   0  0  0  0  0  0  0  0  0  0  0  0
    1.7295   -2.0004    0.0000 N   0  0  0  0  0  0  0  0  0  0  0  0
    1.7240   -3.0004    0.0000 C   0  0  0  0  0  0  0  0  0  0  0  0
    0.8552   -3.4956    0.0000 C   0  0  0  0  0  0  0  0  0  0  0  0
   -0.0088   -2.9920    0.0000 C   0  0  0  0  0  0  0  0  0  0  0  0
   -0.8798   -3.4834    0.0000 C   0  0  0  0  0  0  0  0  0  0  0  0
   -0.8869   -4.4886    0.0000 C   0  0  0  0  0  0  0  0  0  0  0  0
   -1.7578   -4.9799    0.0000 C   0  0  0  0  0  0  0  0  0  0  0  0
   -1.7678   -5.9799    0.0000 N   0  0  0  0  0  0  0  0  0  0  0  0
   -2.6388   -6.4712    0.0000 C   0  0  0  0  0  0  0  0  0  0  0  0
   -3.4998   -5.9626    0.0000 O   0  0  0  0  0  0  0  0  0  0  0  0
   -2.6488   -7.4711    0.0000 O   0  0  0  0  0  0  0  0  0  0  0  0
   -3.5197   -7.9625    0.0000 C   0  0  0  0  0  0  0  0  0  0  0  0
   -4.3907   -8.4538    0.0000 C   0  0  0  0  0  0  0  0  0  0  0  0
   -4.0111   -7.0915    0.0000 C   0  0  0  0  0  0  0  0  0  0  0  0
   -3.0284   -8.8335    0.0000 C   0  0  0  0  0  0  0  0  0  0  0  0
   -0.0230   -5.0024    0.0000 C   0  0  0  0  0  0  0  0  0  0  0  0
    0.8481   -4.5008    0.0000 C   0  0  0  0  0  0  0  0  0  0  0  0
    1.7371    0.0000    0.0000 C   0  0  0  0  0  0  0  0  0  0  0  0
    0.8707   -0.4993    0.0000 C   0  0  0  0  0  0  0  0  0  0  0  0
    0.0000    0.0000    0.0000 C   0  0  0  0  0  0  0  0  0  0  0  0
    0.0000    1.0089    0.0000 C   0  0  0  0  0  0  0  0  0  0  0  0
    0.8707    1.5185    0.0000 C   0  0  0  0  0  0  0  0  0  0  0  0
    1.7414    1.0089    0.0000 C   0  0  0  0  0  0  0  0  0  0  0  0
    2.6125    1.5125    0.0000 N   0  0  0  0  0  0  0  0  0  0  0  0
  1  2  1  0
  2  3  1  0
  2  4  1  0
  4  5  1  0
  5  6  1  0
  6 10  1  0
  6  7  1  0
  7  8  2  0
  8  9  1  0
  9 10  2  0
  8 11  1  0
 11 39  1  0
 11 12  2  0
 12 13  1  0
 13 14  1  0
 14 15  2  0
 14 16  1  0
 16 17  1  0
 18 17  1  1
 18 32  1  0
 18 19  1  0
 19 20  1  0
 20 21  1  0
 21 22  1  6
 22 23  1  0
 23 24  1  0
 24 25  2  0
 24 26  1  0
 26 27  1  0
 27 28  1  0
 27 29  1  0
 27 30  1  0
 21 31  1  0
 31 32  1  0
 13 33  2  0
 33 38  1  0
 33 34  1  0
 34 35  2  0
 35 36  1  0
 36 37  2  0
 37 38  1  0
 38 39  2  0
M  END
>  <SMILES>  (344) 
CN(C)CCn1cc(-c2cc(C(=O)NC[C@H]3CC[C@H](CNC(=O)OC(C)(C)C)CC3)c3ccccc3n2)cn1

>  <CollectionName>  (344) 
chembl

>  <LOG PLASMA PROTEIN BINDING (RAT) (% unbound)>  (344) 
0.810904280669

>  <Internal ID>  (344) 


>  <Source>  (344) 
AstraZeneca

$$$$
CHEMBL1818299
     RDKit          2D

 39 42  0  0  1  0  0  0  0  0999 V2000
    6.4666    5.6926    0.0000 C   0  0  0  0  0  0  0  0  0  0  0  0
    7.3299    5.1880    0.0000 N   0  0  0  0  0  0  0  0  0  0  0  0
    8.1986    5.6834    0.0000 C   0  0  0  0  0  0  0  0  0  0  0  0
    7.3246    4.1880    0.0000 C   0  0  0  0  0  0  0  0  0  0  0  0
    6.4559    3.6926    0.0000 C   0  0  0  0  0  0  0  0  0  0  0  0
    6.4506    2.6927    0.0000 O   0  0  0  0  0  0  0  0  0  0  0  0
    5.5819    2.1973    0.0000 C   0  0  0  0  0  0  0  0  0  0  0  0
    5.3179    1.2328    0.0000 C   0  0  0  0  0  0  0  0  0  0  0  0
    4.3535    1.4968    0.0000 N   0  0  0  0  0  0  0  0  0  0  0  0
    4.6174    2.4612    0.0000 C   0  0  0  0  0  0  0  0  0  0  0  0
    3.4848    1.0014    0.0000 C   0  0  0  0  0  0  0  0  0  0  0  0
    3.4805   -0.0073    0.0000 C   0  0  0  0  0  0  0  0  0  0  0  0
    2.6039   -0.5053    0.0000 C   0  0  0  0  0  0  0  0  0  0  0  0
    2.5983   -1.5053    0.0000 C   0  0  0  0  0  0  0  0  0  0  0  0
    3.4615   -2.0101    0.0000 O   0  0  0  0  0  0  0  0  0  0  0  0
    1.7295   -2.0004    0.0000 N   0  0  0  0  0  0  0  0  0  0  0  0
    1.7240   -3.0004    0.0000 C   0  0  0  0  0  0  0  0  0  0  0  0
    0.8552   -3.4956    0.0000 C   0  0  0  0  0  0  0  0  0  0  0  0
   -0.0088   -2.9920    0.0000 C   0  0  0  0  0  0  0  0  0  0  0  0
   -0.8798   -3.4834    0.0000 C   0  0  0  0  0  0  0  0  0  0  0  0
   -0.8869   -4.4886    0.0000 C   0  0  0  0  0  0  0  0  0  0  0  0
   -1.7578   -4.9799    0.0000 C   0  0  0  0  0  0  0  0  0  0  0  0
   -1.7678   -5.9799    0.0000 N   0  0  0  0  0  0  0  0  0  0  0  0
   -2.6388   -6.4712    0.0000 C   0  0  0  0  0  0  0  0  0  0  0  0
   -3.4998   -5.9626    0.0000 O   0  0  0  0  0  0  0  0  0  0  0  0
   -2.6488   -7.4711    0.0000 O   0  0  0  0  0  0  0  0  0  0  0  0
   -3.5197   -7.9625    0.0000 C   0  0  0  0  0  0  0  0  0  0  0  0
   -4.3907   -8.4538    0.0000 C   0  0  0  0  0  0  0  0  0  0  0  0
   -4.0111   -7.0915    0.0000 C   0  0  0  0  0  0  0  0  0  0  0  0
   -3.0284   -8.8335    0.0000 C   0  0  0  0  0  0  0  0  0  0  0  0
   -0.0230   -5.0024    0.0000 C   0  0  0  0  0  0  0  0  0  0  0  0
    0.8481   -4.5008    0.0000 C   0  0  0  0  0  0  0  0  0  0  0  0
    1.7371    0.0000    0.0000 C   0  0  0  0  0  0  0  0  0  0  0  0
    0.8707   -0.4993    0.0000 C   0  0  0  0  0  0  0  0  0  0  0  0
    0.0000    0.0000    0.0000 C   0  0  0  0  0  0  0  0  0  0  0  0
    0.0000    1.0089    0.0000 C   0  0  0  0  0  0  0  0  0  0  0  0
    0.8707    1.5185    0.0000 C   0  0  0  0  0  0  0  0  0  0  0  0
    1.7414    1.0089    0.0000 C   0  0  0  0  0  0  0  0  0  0  0  0
    2.6125    1.5125    0.0000 N   0  0  0  0  0  0  0  0  0  0  0  0
  1  2  1  0
  2  3  1  0
  2  4  1  0
  4  5  1  0
  5  6  1  0
  6  7  1  0
  7 10  1  0
  7  8  1  0
  8  9  1  0
  9 10  1  0
  9 11  1  0
 11 39  1  0
 11 12  2  0
 12 13  1  0
 13 14  1  0
 14 15  2  0
 14 16  1  0
 16 17  1  0
 18 17  1  1
 18 32  1  0
 18 19  1  0
 19 20  1  0
 20 21  1  0
 21 22  1  6
 22 23  1  0
 23 24  1  0
 24 25  2  0
 24 26  1  0
 26 27  1  0
 27 28  1  0
 27 29  1  0
 27 30  1  0
 21 31  1  0
 31 32  1  0
 13 33  2  0
 33 38  1  0
 33 34  1  0
 34 35  2  0
 35 36  1  0
 36 37  2  0
 37 38  1  0
 38 39  2  0
M  END
>  <SMILES>  (345) 
CN(C)CCOC1CN(c2cc(C(=O)NC[C@H]3CC[C@H](CNC(=O)OC(C)(C)C)CC3)c3ccccc3n2)C1

>  <CollectionName>  (345) 
chembl

>  <LOG PLASMA PROTEIN BINDING (RAT) (% unbound)>  (345) 
1.11025291735

>  <Internal ID>  (345) 


>  <Source>  (345) 
AstraZeneca

$$$$
CHEMBL1818302
     RDKit          2D

 42 46  0  0  1  0  0  0  0  0999 V2000
    8.7059    3.9788    0.0000 C   0  0  0  0  0  0  0  0  0  0  0  0
    8.7006    2.9788    0.0000 N   0  0  0  0  0  0  0  0  0  0  0  0
    9.5639    2.4742    0.0000 C   0  0  0  0  0  0  0  0  0  0  0  0
    7.8319    2.4834    0.0000 C   0  0  0  0  0  0  0  0  0  0  0  0
    6.9686    2.9880    0.0000 C   0  0  0  0  0  0  0  0  0  0  0  0
    6.0999    2.4927    0.0000 C   0  0  0  0  0  0  0  0  0  0  0  0
    6.0974    1.4926    0.0000 C   0  0  0  0  0  0  0  0  0  0  0  0
    5.2242    0.9947    0.0000 C   0  0  0  0  0  0  0  0  0  0  0  0
    4.3535    1.4968    0.0000 N   0  0  0  0  0  0  0  0  0  0  0  0
    4.3648    2.5019    0.0000 C   0  0  0  0  0  0  0  0  0  0  0  0
    5.2380    2.9998    0.0000 C   0  0  0  0  0  0  0  0  0  0  0  0
    3.4848    1.0014    0.0000 C   0  0  0  0  0  0  0  0  0  0  0  0
    3.4805   -0.0073    0.0000 C   0  0  0  0  0  0  0  0  0  0  0  0
    2.6039   -0.5053    0.0000 C   0  0  0  0  0  0  0  0  0  0  0  0
    2.5983   -1.5053    0.0000 C   0  0  0  0  0  0  0  0  0  0  0  0
    3.4615   -2.0101    0.0000 O   0  0  0  0  0  0  0  0  0  0  0  0
    1.7295   -2.0004    0.0000 N   0  0  0  0  0  0  0  0  0  0  0  0
    1.7240   -3.0004    0.0000 C   0  0  0  0  0  0  0  0  0  0  0  0
    0.8552   -3.4956    0.0000 C   0  0  0  0  0  0  0  0  0  0  0  0
   -0.0088   -2.9920    0.0000 C   0  0  0  0  0  0  0  0  0  0  0  0
   -0.8798   -3.4834    0.0000 C   0  0  0  0  0  0  0  0  0  0  0  0
   -0.8869   -4.4886    0.0000 C   0  0  0  0  0  0  0  0  0  0  0  0
   -1.7578   -4.9799    0.0000 C   0  0  0  0  0  0  0  0  0  0  0  0
   -1.7678   -5.9799    0.0000 N   0  0  0  0  0  0  0  0  0  0  0  0
   -2.6388   -6.4712    0.0000 C   0  0  0  0  0  0  0  0  0  0  0  0
   -3.4998   -5.9626    0.0000 O   0  0  0  0  0  0  0  0  0  0  0  0
   -2.6488   -7.4711    0.0000 O   0  0  0  0  0  0  0  0  0  0  0  0
   -3.5197   -7.9625    0.0000 C   0  0  0  0  0  0  0  0  0  0  0  0
   -3.5268   -8.9625    0.0000 C   0  0  0  0  0  0  0  0  0  0  0  0
   -4.4023   -9.4564    0.0000 C   0  0  0  0  0  0  0  0  0  0  0  0
   -5.2707   -8.9503    0.0000 O   0  0  0  0  0  0  0  0  0  0  0  0
   -5.2548   -7.9452    0.0000 C   0  0  0  0  0  0  0  0  0  0  0  0
   -4.3793   -7.4514    0.0000 C   0  0  0  0  0  0  0  0  0  0  0  0
   -0.0230   -5.0024    0.0000 C   0  0  0  0  0  0  0  0  0  0  0  0
    0.8481   -4.5008    0.0000 C   0  0  0  0  0  0  0  0  0  0  0  0
    1.7371    0.0000    0.0000 C   0  0  0  0  0  0  0  0  0  0  0  0
    0.8707   -0.4993    0.0000 C   0  0  0  0  0  0  0  0  0  0  0  0
    0.0000    0.0000    0.0000 C   0  0  0  0  0  0  0  0  0  0  0  0
    0.0000    1.0089    0.0000 C   0  0  0  0  0  0  0  0  0  0  0  0
    0.8707    1.5185    0.0000 C   0  0  0  0  0  0  0  0  0  0  0  0
    1.7414    1.0089    0.0000 C   0  0  0  0  0  0  0  0  0  0  0  0
    2.6125    1.5125    0.0000 N   0  0  0  0  0  0  0  0  0  0  0  0
  1  2  1  0
  2  3  1  0
  2  4  1  0
  4  5  1  0
  5  6  1  0
  6 11  1  0
  6  7  1  0
  7  8  1  0
  8  9  1  0
  9 10  1  0
 10 11  1  0
  9 12  1  0
 12 42  1  0
 12 13  2  0
 13 14  1  0
 14 15  1  0
 15 16  2  0
 15 17  1  0
 17 18  1  0
 19 18  1  1
 19 35  1  0
 19 20  1  0
 20 21  1  0
 21 22  1  0
 22 23  1  6
 23 24  1  0
 24 25  1  0
 25 26  2  0
 25 27  1  0
 27 28  1  0
 28 33  1  0
 28 29  1  0
 29 30  1  0
 30 31  1  0
 31 32  1  0
 32 33  1  0
 22 34  1  0
 34 35  1  0
 14 36  2  0
 36 41  1  0
 36 37  1  0
 37 38  2  0
 38 39  1  0
 39 40  2  0
 40 41  1  0
 41 42  2  0
M  END
>  <SMILES>  (346) 
CN(C)CCC1CCN(c2cc(C(=O)NC[C@H]3CC[C@H](CNC(=O)OC4CCOCC4)CC3)c3ccccc3n2)CC1

>  <CollectionName>  (346) 
chembl

>  <LOG PLASMA PROTEIN BINDING (RAT) (% unbound)>  (346) 
1.41813549843

>  <Internal ID>  (346) 


>  <Source>  (346) 
AstraZeneca

$$$$
CHEMBL1363
     RDKit          2D

 25 26  0  0  1  0  0  0  0  0999 V2000
    3.4670    1.0001    0.0000 C   0  0  0  0  0  0  0  0  0  0  0  0
    2.6025    1.5026    0.0000 O   0  0  0  0  0  0  0  0  0  0  0  0
    1.7350    1.0052    0.0000 C   0  0  0  0  0  0  0  0  0  0  0  0
    1.7350    0.0000    0.0000 C   0  0  0  0  0  0  0  0  0  0  0  0
    0.8675   -0.4975    0.0000 C   0  0  0  0  0  0  0  0  0  0  0  0
    0.0000    0.0000    0.0000 C   0  0  0  0  0  0  0  0  0  0  0  0
   -0.8653   -0.5013    0.0000 C   0  0  0  0  0  0  0  0  0  0  0  0
   -0.8638   -1.5013    0.0000 C   0  0  0  0  0  0  0  0  0  0  0  0
    0.0029   -2.0000    0.0000 C   0  0  0  0  0  0  0  0  0  0  0  0
   -1.7291   -2.0025    0.0000 N   0  0  0  0  0  0  0  0  0  0  0  0
   -1.7277   -3.0025    0.0000 C   0  0  0  0  0  0  0  0  0  0  0  0
   -2.5930   -3.5038    0.0000 C   0  0  0  0  0  0  0  0  0  0  0  0
   -3.4597   -3.0050    0.0000 O   0  0  0  0  0  0  0  0  0  0  0  0
   -2.5915   -4.5038    0.0000 C   0  0  0  0  0  0  0  0  0  0  0  0
   -3.4628   -5.0051    0.0000 C   0  0  0  0  0  0  0  0  0  0  0  0
   -3.4614   -6.0051    0.0000 C   0  0  0  0  0  0  0  0  0  0  0  0
   -2.5976   -6.5089    0.0000 C   0  0  0  0  0  0  0  0  0  0  0  0
   -2.6005   -7.5089    0.0000 O   0  0  0  0  0  0  0  0  0  0  0  0
   -1.7263   -6.0076    0.0000 C   0  0  0  0  0  0  0  0  0  0  0  0
   -0.8625   -6.5115    0.0000 N   0  0  0  0  0  0  0  0  0  0  0  0
   -0.8670   -7.5115    0.0000 C   0  0  0  0  0  0  0  0  0  0  0  0
   -0.0032   -8.0153    0.0000 O   0  0  0  0  0  0  0  0  0  0  0  0
   -1.7189   -5.0025    0.0000 C   0  0  0  0  0  0  0  0  0  0  0  0
   -0.0000    1.0052    0.0000 C   0  0  0  0  0  0  0  0  0  0  0  0
    0.8675    1.5129    0.0000 C   0  0  0  0  0  0  0  0  0  0  0  0
  1  2  1  0
  2  3  1  0
  3 25  2  0
  3  4  1  0
  4  5  2  0
  5  6  1  0
  6  7  1  0
  7  8  1  0
  8  9  1  1
  8 10  1  0
 10 11  1  0
 11 12  1  0
 12 13  1  1
 12 14  1  0
 14 23  1  0
 14 15  2  0
 15 16  1  0
 16 17  2  0
 17 18  1  0
 17 19  1  0
 19 20  1  0
 20 21  1  0
 21 22  2  0
 19 23  2  0
  6 24  2  0
 24 25  1  0
M  END
>  <SMILES>  (347) 
COc1ccc(C[C@@H](C)NC[C@H](O)c2ccc(O)c(NC=O)c2)cc1

>  <CollectionName>  (347) 
chembl

>  <LOG PLASMA PROTEIN BINDING (RAT) (% unbound)>  (347) 
1.59361830813

>  <Internal ID>  (347) 


>  <Source>  (347) 
AstraZeneca

$$$$
CHEMBL108922
     RDKit          2D

 27 29  0  0  0  0  0  0  0  0999 V2000
    7.8175  -10.5115    0.0000 C   0  0  0  0  0  0  0  0  0  0  0  0
    7.8145   -9.5115    0.0000 C   0  0  0  0  0  0  0  0  0  0  0  0
    6.9470   -9.0141    0.0000 O   0  0  0  0  0  0  0  0  0  0  0  0
    6.9441   -8.0141    0.0000 N   0  0  0  0  0  0  0  0  0  0  0  0
    6.0766   -7.5166    0.0000 C   0  0  0  0  0  0  0  0  0  0  0  0
    6.0736   -6.5166    0.0000 C   0  0  0  0  0  0  0  0  0  0  0  0
    6.9375   -6.0128    0.0000 C   0  0  0  0  0  0  0  0  0  0  0  0
    6.9389   -5.0128    0.0000 C   0  0  0  0  0  0  0  0  0  0  0  0
    6.0676   -4.5115    0.0000 C   0  0  0  0  0  0  0  0  0  0  0  0
    6.0690   -3.5115    0.0000 O   0  0  0  0  0  0  0  0  0  0  0  0
    5.2037   -3.0102    0.0000 C   0  0  0  0  0  0  0  0  0  0  0  0
    5.2052   -2.0102    0.0000 C   0  0  0  0  0  0  0  0  0  0  0  0
    4.3399   -1.5090    0.0000 C   0  0  0  0  0  0  0  0  0  0  0  0
    3.4746   -2.0103    0.0000 C   0  0  0  0  0  0  0  0  0  0  0  0
    2.6048   -1.5064    0.0000 C   0  0  0  0  0  0  0  0  0  0  0  0
    2.6003   -0.5013    0.0000 N   0  0  0  0  0  0  0  0  0  0  0  0
    3.4745   -0.0051    0.0000 C   0  0  0  0  0  0  0  0  0  0  0  0
    4.3442   -0.5090    0.0000 C   0  0  0  0  0  0  0  0  0  0  0  0
    1.7350   -0.0000    0.0000 C   0  0  0  0  0  0  0  0  0  0  0  0
    0.8675   -0.4975    0.0000 C   0  0  0  0  0  0  0  0  0  0  0  0
    0.0000    0.0000    0.0000 C   0  0  0  0  0  0  0  0  0  0  0  0
    0.0000    1.0052    0.0000 C   0  0  0  0  0  0  0  0  0  0  0  0
   -0.8675    1.5026    0.0000 C   0  0  0  0  0  0  0  0  0  0  0  0
    0.8675    1.5129    0.0000 N   0  0  0  0  0  0  0  0  0  0  0  0
    1.7350    1.0052    0.0000 N   0  0  0  0  0  0  0  0  0  0  0  0
    5.1949   -5.0102    0.0000 C   0  0  0  0  0  0  0  0  0  0  0  0
    5.2023   -6.0153    0.0000 C   0  0  0  0  0  0  0  0  0  0  0  0
  1  2  1  0
  2  3  1  0
  3  4  1  0
  4  5  2  0
  5  6  1  0
  6 27  2  0
  6  7  1  0
  7  8  2  0
  8  9  1  0
  9 10  1  0
 10 11  1  0
 11 12  1  0
 12 13  1  0
 13 18  1  0
 13 14  1  0
 14 15  1  0
 15 16  1  0
 16 17  1  0
 17 18  1  0
 16 19  1  0
 19 25  1  0
 19 20  2  0
 20 21  1  0
 21 22  2  0
 22 23  1  0
 22 24  1  0
 24 25  2  0
  9 26  2  0
 26 27  1  0
M  END
>  <SMILES>  (348) 
CCO/N=C/c1ccc(OCCC2CCN(c3ccc(C)nn3)CC2)cc1

>  <CollectionName>  (348) 
chembl

>  <LOG PLASMA PROTEIN BINDING (RAT) (% unbound)>  (348) 
-0.468521082958

>  <Internal ID>  (348) 


>  <Source>  (348) 
AstraZeneca

$$$$
CHEMBL1789941
     RDKit          2D

 23 26  0  0  1  0  0  0  0  0999 V2000
    0.0321    6.0801    0.0000 N   0  0  0  0  0  0  0  0  0  0  0  0
   -0.5558    5.2711    0.0000 C   0  0  0  0  0  0  0  0  0  0  0  0
   -1.1437    4.4622    0.0000 C   0  0  0  0  0  0  0  0  0  0  0  0
   -0.7370    3.5486    0.0000 C   0  0  0  0  0  0  0  0  0  0  0  0
    0.2575    3.4439    0.0000 C   0  0  0  0  0  0  0  0  0  0  0  0
    0.9285    4.1876    0.0000 C   0  0  0  0  0  0  0  0  0  0  0  0
    1.8438    3.7814    0.0000 C   0  0  0  0  0  0  0  0  0  0  0  0
    1.7379    2.7870    0.0000 C   0  0  0  0  0  0  0  0  0  0  0  0
    0.7605    2.5745    0.0000 C   0  0  0  0  0  0  0  0  0  0  0  0
   -1.3249    2.7396    0.0000 N   0  0  0  0  0  0  0  0  0  0  0  0
   -1.0164    1.7866    0.0000 C   0  0  0  0  0  0  0  0  0  0  0  0
   -1.8258    1.1969    0.0000 C   0  0  0  0  0  0  0  0  0  0  0  0
   -2.6341    1.7858    0.0000 C   0  0  0  0  0  0  0  0  0  0  0  0
   -2.3295    2.7387    0.0000 N   0  0  0  0  0  0  0  0  0  0  0  0
   -1.8258    0.1969    0.0000 C   0  0  0  0  0  0  0  0  0  0  0  0
   -2.6938   -0.3110    0.0000 N   0  0  0  0  0  0  0  0  0  0  0  0
   -2.6938   -1.3168    0.0000 C   0  0  0  0  0  0  0  0  0  0  0  0
   -1.8258   -1.8147    0.0000 N   0  0  0  0  0  0  0  0  0  0  0  0
   -0.9578   -1.3181    0.0000 C   0  0  0  0  0  0  0  0  0  0  0  0
    0.0000   -1.6294    0.0000 N   0  0  0  0  0  0  0  0  0  0  0  0
    0.5920   -0.8146    0.0000 C   0  0  0  0  0  0  0  0  0  0  0  0
    0.0000    0.0000    0.0000 C   0  0  0  0  0  0  0  0  0  0  0  0
   -0.9578   -0.3110    0.0000 C   0  0  0  0  0  0  0  0  0  0  0  0
  1  2  3  0
  2  3  1  0
  4  3  1  6
  4  5  1  0
  5  9  1  0
  5  6  1  0
  6  7  1  0
  7  8  1  0
  8  9  1  0
  4 10  1  0
 10 14  1  0
 10 11  1  0
 11 12  2  0
 12 13  1  0
 13 14  2  0
 12 15  1  0
 15 23  1  0
 15 16  2  0
 16 17  1  0
 17 18  2  0
 18 19  1  0
 19 23  2  0
 19 20  1  0
 20 21  1  0
 21 22  2  0
 22 23  1  0
M  END
>  <SMILES>  (349) 
N#CC[C@H](C1CCCC1)n1cc(-c2ncnc3[nH]ccc23)cn1

>  <CollectionName>  (349) 
chembl

>  <LOG PLASMA PROTEIN BINDING (RAT) (% unbound)>  (349) 
1.23754373814

>  <Internal ID>  (349) 


>  <Source>  (349) 
AstraZeneca

$$$$
CHEMBL2337977
     RDKit          2D

 25 26  0  0  0  0  0  0  0  0999 V2000
    6.9955    2.0503    0.0000 C   0  0  0  0  0  0  0  0  0  0  0  0
    6.0309    2.3140    0.0000 C   0  0  0  0  0  0  0  0  0  0  0  0
    5.7671    1.3495    0.0000 C   0  0  0  0  0  0  0  0  0  0  0  0
    6.2946    3.2786    0.0000 C   0  0  0  0  0  0  0  0  0  0  0  0
    5.0663    2.5778    0.0000 N   0  0  0  0  0  0  0  0  0  0  0  0
    4.3556    1.8743    0.0000 C   0  0  0  0  0  0  0  0  0  0  0  0
    4.6095    0.9071    0.0000 O   0  0  0  0  0  0  0  0  0  0  0  0
    3.3910    2.1380    0.0000 N   0  0  0  0  0  0  0  0  0  0  0  0
    2.6803    1.4345    0.0000 C   0  0  0  0  0  0  0  0  0  0  0  0
    1.7157    1.6983    0.0000 C   0  0  0  0  0  0  0  0  0  0  0  0
    1.0050    0.9948    0.0000 N   0  0  0  0  0  0  0  0  0  0  0  0
    0.0051    0.9999    0.0000 C   0  0  0  0  0  0  0  0  0  0  0  0
    0.0000    0.0000    0.0000 C   0  0  0  0  0  0  0  0  0  0  0  0
    0.9999   -0.0051    0.0000 C   0  0  0  0  0  0  0  0  0  0  0  0
   -0.7107   -0.7035    0.0000 N   0  0  0  0  0  0  0  0  0  0  0  0
   -0.4568   -1.6707    0.0000 C   0  0  0  0  0  0  0  0  0  0  0  0
    0.5078   -1.9345    0.0000 O   0  0  0  0  0  0  0  0  0  0  0  0
   -1.1675   -2.3742    0.0000 C   0  0  0  0  0  0  0  0  0  0  0  0
   -0.9108   -3.3407    0.0000 C   0  0  0  0  0  0  0  0  0  0  0  0
   -1.6252   -4.0479    0.0000 C   0  0  0  0  0  0  0  0  0  0  0  0
   -1.3685   -5.0144    0.0000 Cl  0  0  0  0  0  0  0  0  0  0  0  0
   -2.5963   -3.7885    0.0000 C   0  0  0  0  0  0  0  0  0  0  0  0
   -2.8458   -2.8148    0.0000 C   0  0  0  0  0  0  0  0  0  0  0  0
   -3.8096   -2.5482    0.0000 Cl  0  0  0  0  0  0  0  0  0  0  0  0
   -2.1314   -2.1077    0.0000 C   0  0  0  0  0  0  0  0  0  0  0  0
  1  2  1  0
  2  3  1  0
  2  4  1  0
  2  5  1  0
  5  6  1  0
  6  7  2  0
  6  8  1  0
  8  9  1  0
  9 10  1  0
 10 11  1  0
 11 14  1  0
 11 12  1  0
 12 13  1  0
 13 14  1  0
 13 15  1  0
 15 16  1  0
 16 17  2  0
 16 18  1  0
 18 25  1  0
 18 19  2  0
 19 20  1  0
 20 21  1  0
 20 22  2  0
 22 23  1  0
 23 24  1  0
 23 25  2  0
M  END
>  <SMILES>  (350) 
CC(C)(C)NC(=O)NCCN1CC(NC(=O)c2cc(Cl)cc(Cl)c2)C1

>  <CollectionName>  (350) 
chembl

>  <LOG PLASMA PROTEIN BINDING (RAT) (% unbound)>  (350) 
1.00389116624

>  <Internal ID>  (350) 


>  <Source>  (350) 
AstraZeneca

$$$$
CHEMBL2337984
     RDKit          2D

 28 31  0  0  0  0  0  0  0  0999 V2000
    3.4656    5.0129    0.0000 C   0  0  0  0  0  0  0  0  0  0  0  0
    2.5996    4.5129    0.0000 C   0  0  0  0  0  0  0  0  0  0  0  0
    3.0996    3.6469    0.0000 C   0  0  0  0  0  0  0  0  0  0  0  0
    2.0996    5.3789    0.0000 C   0  0  0  0  0  0  0  0  0  0  0  0
    1.7335    4.0129    0.0000 N   0  0  0  0  0  0  0  0  0  0  0  0
    1.7335    3.0129    0.0000 C   0  0  0  0  0  0  0  0  0  0  0  0
    2.5996    2.5129    0.0000 O   0  0  0  0  0  0  0  0  0  0  0  0
    0.8675    2.5129    0.0000 C   0  0  0  0  0  0  0  0  0  0  0  0
    0.8675    1.5129    0.0000 N   0  0  0  0  0  0  0  0  0  0  0  0
    0.0000    1.0052    0.0000 C   0  0  0  0  0  0  0  0  0  0  0  0
    0.0000    0.0000    0.0000 C   0  0  0  0  0  0  0  0  0  0  0  0
    0.8675   -0.4975    0.0000 N   0  0  0  0  0  0  0  0  0  0  0  0
    0.8675   -1.4975    0.0000 C   0  0  0  0  0  0  0  0  0  0  0  0
    0.0015   -1.9975    0.0000 C   0  0  0  0  0  0  0  0  0  0  0  0
   -0.8645   -1.4975    0.0000 O   0  0  0  0  0  0  0  0  0  0  0  0
    0.0015   -2.9975    0.0000 N   0  0  0  0  0  0  0  0  0  0  0  0
   -0.8645   -3.4975    0.0000 C   0  0  0  0  0  0  0  0  0  0  0  0
   -1.6466   -2.8586    0.0000 C   0  0  0  0  0  0  0  0  0  0  0  0
   -2.5444   -3.4154    0.0000 C   0  0  0  0  0  0  0  0  0  0  0  0
   -3.7571   -3.1648    0.0000 C   0  0  0  0  0  0  0  0  0  0  0  0
   -2.9484   -3.9158    0.0000 C   0  0  0  0  0  0  0  0  0  0  0  0
   -2.7654   -4.9698    0.0000 C   0  0  0  0  0  0  0  0  0  0  0  0
   -1.6197   -5.1098    0.0000 C   0  0  0  0  0  0  0  0  0  0  0  0
   -2.3447   -4.3953    0.0000 C   0  0  0  0  0  0  0  0  0  0  0  0
   -0.6930   -4.5513    0.0000 C   0  0  0  0  0  0  0  0  0  0  0  0
   -1.9898   -3.3245    0.0000 C   0  0  0  0  0  0  0  0  0  0  0  0
    1.7350    0.0000    0.0000 C   0  0  0  0  0  0  0  0  0  0  0  0
    1.7350    1.0052    0.0000 C   0  0  0  0  0  0  0  0  0  0  0  0
  1  2  1  0
  2  3  1  0
  2  4  1  0
  2  5  1  0
  5  6  1  0
  6  7  2  0
  6  8  1  0
  8  9  1  0
  9 28  1  0
  9 10  1  0
 10 11  1  0
 11 12  1  0
 12 13  1  0
 13 14  1  0
 14 15  2  0
 14 16  1  0
 16 17  1  0
 17 25  1  0
 17 26  1  0
 17 18  1  0
 18 19  1  0
 19 24  1  0
 19 20  1  0
 20 21  1  0
 21 22  1  0
 22 23  1  0
 23 24  1  0
 23 25  1  0
 21 26  1  0
 12 27  1  0
 27 28  1  0
M  END
>  <SMILES>  (351) 
CC(C)(C)NC(=O)CN1CCN(CC(=O)NC23CC4CC(CC(C4)C2)C3)CC1

>  <CollectionName>  (351) 
chembl

>  <LOG PLASMA PROTEIN BINDING (RAT) (% unbound)>  (351) 
1.48967729166

>  <Internal ID>  (351) 


>  <Source>  (351) 
AstraZeneca

$$$$
CHEMBL2349318
     RDKit          2D

 28 30  0  0  1  0  0  0  0  0999 V2000
   -1.7301    1.0138    0.0000 C   0  0  0  0  0  0  0  0  0  0  0  0
   -0.8641    1.5138    0.0000 C   0  0  0  0  0  0  0  0  0  0  0  0
   -0.8641    2.5138    0.0000 C   0  0  0  0  0  0  0  0  0  0  0  0
    0.0020    3.0138    0.0000 C   0  0  0  0  0  0  0  0  0  0  0  0
    0.0020    4.0138    0.0000 C   0  0  0  0  0  0  0  0  0  0  0  0
   -0.8641    4.5138    0.0000 O   0  0  0  0  0  0  0  0  0  0  0  0
    0.8680    2.5138    0.0000 N   0  0  0  0  0  0  0  0  0  0  0  0
    0.8680    1.5138    0.0000 C   0  0  0  0  0  0  0  0  0  0  0  0
    0.0000    1.0058    0.0000 N   0  0  0  0  0  0  0  0  0  0  0  0
    0.0000    0.0000    0.0000 C   0  0  0  0  0  0  0  0  0  0  0  0
   -0.8653   -0.5013    0.0000 S   0  0  0  0  0  0  0  0  0  0  0  0
   -0.8639   -1.5013    0.0000 C   0  0  0  0  0  0  0  0  0  0  0  0
    0.0029   -2.0000    0.0000 C   0  0  0  0  0  0  0  0  0  0  0  0
   -1.7292   -2.0025    0.0000 C   0  0  0  0  0  0  0  0  0  0  0  0
   -1.7247   -3.0077    0.0000 C   0  0  0  0  0  0  0  0  0  0  0  0
   -2.5900   -3.5090    0.0000 C   0  0  0  0  0  0  0  0  0  0  0  0
   -3.4597   -3.0153    0.0000 C   0  0  0  0  0  0  0  0  0  0  0  0
   -3.4641   -2.0101    0.0000 C   0  0  0  0  0  0  0  0  0  0  0  0
   -2.5989   -1.4986    0.0000 C   0  0  0  0  0  0  0  0  0  0  0  0
   -4.3338   -1.5165    0.0000 C   0  0  0  0  0  0  0  0  0  0  0  0
   -5.2035   -1.0229    0.0000 N   0  0  0  0  0  0  0  0  0  0  0  0
    0.8680   -0.4978    0.0000 N   0  0  0  0  0  0  0  0  0  0  0  0
    1.7360   -0.0012    0.0000 C   0  0  0  0  0  0  0  0  0  0  0  0
    2.6938   -0.3125    0.0000 N   0  0  0  0  0  0  0  0  0  0  0  0
    3.2858    0.5023    0.0000 C   0  0  0  0  0  0  0  0  0  0  0  0
    4.2858    0.5024    0.0000 O   0  0  0  0  0  0  0  0  0  0  0  0
    2.6938    1.3169    0.0000 S   0  0  0  0  0  0  0  0  0  0  0  0
    1.7360    1.0058    0.0000 C   0  0  0  0  0  0  0  0  0  0  0  0
  1  2  1  0
  2  3  1  0
  4  3  1  6
  4  5  1  0
  5  6  1  0
  4  7  1  0
  7  8  1  0
  8 28  2  0
  8  9  1  0
  9 10  2  0
 10 11  1  0
 11 12  1  0
 12 13  1  1
 12 14  1  0
 14 19  1  0
 14 15  2  0
 15 16  1  0
 16 17  2  0
 17 18  1  0
 18 19  2  0
 18 20  1  0
 20 21  3  0
 10 22  1  0
 22 23  2  0
 23 28  1  0
 23 24  1  0
 24 25  1  0
 25 26  2  0
 25 27  1  0
 27 28  1  0
M  END
>  <SMILES>  (352) 
CCC[C@H](CO)Nc1nc(S[C@@H](C)c2cccc(C#N)c2)nc2[nH]c(=O)sc12

>  <CollectionName>  (352) 
chembl

>  <LOG PLASMA PROTEIN BINDING (RAT) (% unbound)>  (352) 
-1.09691001301

>  <Internal ID>  (352) 


>  <Source>  (352) 
AstraZeneca

$$$$
CHEMBL1734492
     RDKit          2D

 23 25  0  0  1  0  0  0  0  0999 V2000
   -2.6112    5.4982    0.0000 N   0  0  0  0  0  0  0  0  0  0  0  0
   -2.6083    4.4982    0.0000 C   0  0  0  0  0  0  0  0  0  0  0  0
   -3.4728    3.9957    0.0000 O   0  0  0  0  0  0  0  0  0  0  0  0
   -1.7408    4.0007    0.0000 N   0  0  0  0  0  0  0  0  0  0  0  0
   -1.7379    3.0008    0.0000 C   0  0  0  0  0  0  0  0  0  0  0  0
   -2.6024    2.4982    0.0000 O   0  0  0  0  0  0  0  0  0  0  0  0
   -0.8704    2.5033    0.0000 C   0  0  0  0  0  0  0  0  0  0  0  0
   -0.8675    1.5033    0.0000 N   0  0  0  0  0  0  0  0  0  0  0  0
    0.0000    1.0058    0.0000 C   0  0  0  0  0  0  0  0  0  0  0  0
    0.0000    0.0000    0.0000 C   0  0  0  0  0  0  0  0  0  0  0  0
    0.8680   -0.4979    0.0000 C   0  0  0  0  0  0  0  0  0  0  0  0
    1.7360   -0.0013    0.0000 C   0  0  0  0  0  0  0  0  0  0  0  0
    2.6938   -0.3126    0.0000 C   0  0  0  0  0  0  0  0  0  0  0  0
    3.2858    0.5022    0.0000 C   0  0  0  0  0  0  0  0  0  0  0  0
    2.6938    1.3168    0.0000 C   0  0  0  0  0  0  0  0  0  0  0  0
    1.7360    1.0058    0.0000 C   0  0  0  0  0  0  0  0  0  0  0  0
    0.8680    1.5137    0.0000 C   0  0  0  0  0  0  0  0  0  0  0  0
   -0.0058    3.0058    0.0000 C   0  0  0  0  0  0  0  0  0  0  0  0
    0.8647    2.5032    0.0000 C   0  0  0  0  0  0  0  0  0  0  0  0
    1.7293    3.0056    0.0000 C   0  0  0  0  0  0  0  0  0  0  0  0
    1.7322    4.0057    0.0000 C   0  0  0  0  0  0  0  0  0  0  0  0
    0.8617    4.5083    0.0000 C   0  0  0  0  0  0  0  0  0  0  0  0
   -0.0117    4.0109    0.0000 C   0  0  0  0  0  0  0  0  0  0  0  0
  1  2  1  0
  2  3  2  0
  2  4  1  0
  4  5  1  0
  5  6  2  0
  5  7  1  0
  7  8  1  0
  8  9  1  0
  9 17  1  0
  9 10  2  0
 10 11  1  0
 11 12  2  0
 12 16  1  0
 12 13  1  0
 13 14  1  0
 14 15  1  0
 15 16  1  0
 16 17  2  0
  7 18  1  0
 18 23  1  0
 18 19  2  0
 19 20  1  0
 20 21  2  0
 21 22  1  0
 22 23  2  0
M  END
>  <SMILES>  (353) 
NC(=O)NC(=O)C(Nc1ccc2c(c1)CCC2)c1ccccc1

>  <CollectionName>  (353) 
chembl

>  <LOG PLASMA PROTEIN BINDING (RAT) (% unbound)>  (353) 
0.76417613239

>  <Internal ID>  (353) 


>  <Source>  (353) 
AstraZeneca

$$$$
CHEMBL2312928
     RDKit          2D

 25 27  0  0  1  0  0  0  0  0999 V2000
   -0.0036   -3.0012    0.0000 C   0  0  0  0  0  0  0  0  0  0  0  0
    0.8631   -2.5025    0.0000 C   0  0  0  0  0  0  0  0  0  0  0  0
    0.8646   -1.5025    0.0000 C   0  0  0  0  0  0  0  0  0  0  0  0
    1.7313   -1.0038    0.0000 N   0  0  0  0  0  0  0  0  0  0  0  0
    1.7328   -0.0038    0.0000 C   0  0  0  0  0  0  0  0  0  0  0  0
    0.8675    0.4975    0.0000 C   0  0  0  0  0  0  0  0  0  0  0  0
    0.0000    0.0000    0.0000 C   0  0  0  0  0  0  0  0  0  0  0  0
   -0.8675    0.4975    0.0000 C   0  0  0  0  0  0  0  0  0  0  0  0
   -0.8675    1.5027    0.0000 C   0  0  0  0  0  0  0  0  0  0  0  0
   -0.0000    2.0104    0.0000 N   0  0  0  0  0  0  0  0  0  0  0  0
    0.8675    1.5027    0.0000 C   0  0  0  0  0  0  0  0  0  0  0  0
    2.5995    0.4950    0.0000 P   0  0  0  0  0  0  0  0  0  0  0  0
    2.1008    1.3617    0.0000 O   0  0  0  0  0  0  0  0  0  0  0  0
    3.4663    0.9937    0.0000 C   0  0  0  0  0  0  0  0  0  0  0  0
    3.4648    1.9989    0.0000 C   0  0  0  0  0  0  0  0  0  0  0  0
    4.3315    2.4977    0.0000 C   0  0  0  0  0  0  0  0  0  0  0  0
    5.1998    2.0015    0.0000 C   0  0  0  0  0  0  0  0  0  0  0  0
    5.2013    0.9963    0.0000 C   0  0  0  0  0  0  0  0  0  0  0  0
    4.3346    0.4873    0.0000 C   0  0  0  0  0  0  0  0  0  0  0  0
    3.4724   -1.0218    0.0000 C   0  0  0  0  0  0  0  0  0  0  0  0
    4.4775   -1.0203    0.0000 C   0  0  0  0  0  0  0  0  0  0  0  0
    4.9764   -1.8871    0.0000 C   0  0  0  0  0  0  0  0  0  0  0  0
    4.4802   -2.7553    0.0000 C   0  0  0  0  0  0  0  0  0  0  0  0
    3.4750   -2.7568    0.0000 C   0  0  0  0  0  0  0  0  0  0  0  0
    2.9660   -1.8901    0.0000 C   0  0  0  0  0  0  0  0  0  0  0  0
  1  2  1  0
  2  3  1  0
  3  4  1  0
  4  5  1  0
  5  6  1  0
  6 11  1  0
  6  7  2  0
  7  8  1  0
  8  9  2  0
  9 10  1  0
 10 11  2  0
  5 12  1  0
 12 13  2  0
 12 14  1  0
 14 19  1  0
 14 15  2  0
 15 16  1  0
 16 17  2  0
 17 18  1  0
 18 19  2  0
 12 20  1  0
 20 25  1  0
 20 21  2  0
 21 22  1  0
 22 23  2  0
 23 24  1  0
 24 25  2  0
M  END
>  <SMILES>  (354) 
CCCNC(c1cccnc1)P(=O)(c1ccccc1)c1ccccc1

>  <CollectionName>  (354) 
chembl

>  <LOG PLASMA PROTEIN BINDING (RAT) (% unbound)>  (354) 
1.23754373814

>  <Internal ID>  (354) 


>  <Source>  (354) 
AstraZeneca

$$$$
CHEMBL2313226
     RDKit          2D

 28 31  0  0  1  0  0  0  0  0999 V2000
    2.1080    4.3651    0.0000 O   0  0  0  0  0  0  0  0  0  0  0  0
    2.6054    3.4976    0.0000 P   0  0  0  0  0  0  0  0  0  0  0  0
    1.7379    3.0001    0.0000 N   0  0  0  0  0  0  0  0  0  0  0  0
    1.7350    2.0001    0.0000 C   0  0  0  0  0  0  0  0  0  0  0  0
    0.8675    1.5027    0.0000 C   0  0  0  0  0  0  0  0  0  0  0  0
    0.8675    0.4975    0.0000 C   0  0  0  0  0  0  0  0  0  0  0  0
    0.0000    0.0000    0.0000 C   0  0  0  0  0  0  0  0  0  0  0  0
   -0.8675    0.4975    0.0000 C   0  0  0  0  0  0  0  0  0  0  0  0
   -0.8675    1.5027    0.0000 C   0  0  0  0  0  0  0  0  0  0  0  0
   -0.0000    2.0104    0.0000 N   0  0  0  0  0  0  0  0  0  0  0  0
    0.8734    3.5027    0.0000 C   0  0  0  0  0  0  0  0  0  0  0  0
    0.0052    3.0065    0.0000 C   0  0  0  0  0  0  0  0  0  0  0  0
   -0.8616    3.5053    0.0000 C   0  0  0  0  0  0  0  0  0  0  0  0
   -0.8601    4.5105    0.0000 C   0  0  0  0  0  0  0  0  0  0  0  0
    0.0082    5.0169    0.0000 N   0  0  0  0  0  0  0  0  0  0  0  0
    0.8749    4.5079    0.0000 C   0  0  0  0  0  0  0  0  0  0  0  0
    3.4729    3.9950    0.0000 C   0  0  0  0  0  0  0  0  0  0  0  0
    3.4729    5.0002    0.0000 C   0  0  0  0  0  0  0  0  0  0  0  0
    4.3404    5.4977    0.0000 C   0  0  0  0  0  0  0  0  0  0  0  0
    5.2079    5.0002    0.0000 C   0  0  0  0  0  0  0  0  0  0  0  0
    5.2079    3.9950    0.0000 C   0  0  0  0  0  0  0  0  0  0  0  0
    4.3404    3.4873    0.0000 C   0  0  0  0  0  0  0  0  0  0  0  0
    3.4760    1.9795    0.0000 C   0  0  0  0  0  0  0  0  0  0  0  0
    4.4812    1.9795    0.0000 C   0  0  0  0  0  0  0  0  0  0  0  0
    4.9787    1.1120    0.0000 C   0  0  0  0  0  0  0  0  0  0  0  0
    4.4812    0.2445    0.0000 C   0  0  0  0  0  0  0  0  0  0  0  0
    3.4760    0.2445    0.0000 C   0  0  0  0  0  0  0  0  0  0  0  0
    2.9683    1.1120    0.0000 C   0  0  0  0  0  0  0  0  0  0  0  0
  1  2  2  0
  2  3  1  0
  3  4  1  0
  4  5  1  0
  5 10  1  0
  5  6  2  0
  6  7  1  0
  7  8  2  0
  8  9  1  0
  9 10  2  0
  3 11  1  0
 11 16  1  0
 11 12  2  0
 12 13  1  0
 13 14  2  0
 14 15  1  0
 15 16  2  0
  2 17  1  0
 17 22  1  0
 17 18  2  0
 18 19  1  0
 19 20  2  0
 20 21  1  0
 21 22  2  0
  2 23  1  0
 23 28  1  0
 23 24  2  0
 24 25  1  0
 25 26  2  0
 26 27  1  0
 27 28  2  0
M  END
>  <SMILES>  (355) 
O=P(c1ccccc1)(c1ccccc1)N(Cc1ccccn1)c1cccnc1

>  <CollectionName>  (355) 
chembl

>  <LOG PLASMA PROTEIN BINDING (RAT) (% unbound)>  (355) 
1.16196661636

>  <Internal ID>  (355) 


>  <Source>  (355) 
AstraZeneca

$$$$
CHEMBL2316389
     RDKit          2D

 34 37  0  0  0  0  0  0  0  0999 V2000
    5.9880  -10.5409    0.0000 O   0  0  0  0  0  0  0  0  0  0  0  0
    5.9980   -9.5409    0.0000 C   0  0  0  0  0  0  0  0  0  0  0  0
    5.1370   -9.0323    0.0000 C   0  0  0  0  0  0  0  0  0  0  0  0
    5.1469   -8.0323    0.0000 O   0  0  0  0  0  0  0  0  0  0  0  0
    4.2860   -7.5237    0.0000 C   0  0  0  0  0  0  0  0  0  0  0  0
    4.2959   -6.5238    0.0000 C   0  0  0  0  0  0  0  0  0  0  0  0
    3.4349   -6.0152    0.0000 O   0  0  0  0  0  0  0  0  0  0  0  0
    3.4449   -5.0152    0.0000 C   0  0  0  0  0  0  0  0  0  0  0  0
    2.5779   -4.5065    0.0000 C   0  0  0  0  0  0  0  0  0  0  0  0
    2.5879   -3.5065    0.0000 C   0  0  0  0  0  0  0  0  0  0  0  0
    3.4560   -3.0101    0.0000 C   0  0  0  0  0  0  0  0  0  0  0  0
    3.4615   -2.0101    0.0000 N   0  0  0  0  0  0  0  0  0  0  0  0
    2.5983   -1.5053    0.0000 C   0  0  0  0  0  0  0  0  0  0  0  0
    1.7295   -2.0004    0.0000 O   0  0  0  0  0  0  0  0  0  0  0  0
    2.6039   -0.5053    0.0000 C   0  0  0  0  0  0  0  0  0  0  0  0
    3.4805   -0.0073    0.0000 C   0  0  0  0  0  0  0  0  0  0  0  0
    3.4848    1.0014    0.0000 C   0  0  0  0  0  0  0  0  0  0  0  0
    2.6125    1.5125    0.0000 N   0  0  0  0  0  0  0  0  0  0  0  0
    1.7414    1.0089    0.0000 C   0  0  0  0  0  0  0  0  0  0  0  0
    0.8707    1.5185    0.0000 C   0  0  0  0  0  0  0  0  0  0  0  0
    0.0000    1.0089    0.0000 C   0  0  0  0  0  0  0  0  0  0  0  0
    0.0000    0.0000    0.0000 C   0  0  0  0  0  0  0  0  0  0  0  0
    0.8707   -0.4993    0.0000 C   0  0  0  0  0  0  0  0  0  0  0  0
    1.7371    0.0000    0.0000 C   0  0  0  0  0  0  0  0  0  0  0  0
    4.3229   -3.5188    0.0000 C   0  0  0  0  0  0  0  0  0  0  0  0
    4.3218   -4.5239    0.0000 N   0  0  0  0  0  0  0  0  0  0  0  0
    5.1910   -3.0223    0.0000 C   0  0  0  0  0  0  0  0  0  0  0  0
    6.0550   -3.5259    0.0000 O   0  0  0  0  0  0  0  0  0  0  0  0
    5.1951   -2.0223    0.0000 N   0  0  0  0  0  0  0  0  0  0  0  0
    6.0631   -1.5259    0.0000 C   0  0  0  0  0  0  0  0  0  0  0  0
    6.9271   -2.0294    0.0000 C   0  0  0  0  0  0  0  0  0  0  0  0
    7.1820   -2.9964    0.0000 C   0  0  0  0  0  0  0  0  0  0  0  0
    8.1490   -2.7415    0.0000 C   0  0  0  0  0  0  0  0  0  0  0  0
    7.8941   -1.7745    0.0000 C   0  0  0  0  0  0  0  0  0  0  0  0
  1  2  1  0
  2  3  1  0
  3  4  1  0
  4  5  1  0
  5  6  1  0
  6  7  1  0
  7  8  1  0
  8 26  2  0
  8  9  1  0
  9 10  2  0
 10 11  1  0
 11 12  1  0
 12 13  1  0
 13 14  2  0
 13 15  1  0
 15 24  1  0
 15 16  2  0
 16 17  1  0
 17 18  2  0
 18 19  1  0
 19 24  2  0
 19 20  1  0
 20 21  2  0
 21 22  1  0
 22 23  2  0
 23 24  1  0
 11 25  2  0
 25 26  1  0
 25 27  1  0
 27 28  2  0
 27 29  1  0
 29 30  1  0
 30 31  1  0
 31 34  1  0
 31 32  1  0
 32 33  1  0
 33 34  1  0
M  END
>  <SMILES>  (356) 
O=C(NCC1CCC1)c1nc(OCCOCCO)ccc1NC(=O)c1ccnc2ccccc12

>  <CollectionName>  (356) 
chembl

>  <LOG PLASMA PROTEIN BINDING (RAT) (% unbound)>  (356) 
0.47712125472

>  <Internal ID>  (356) 


>  <Source>  (356) 
AstraZeneca

$$$$
CHEMBL2316404
     RDKit          2D

 29 32  0  0  0  0  0  0  0  0999 V2000
    4.2959   -6.5238    0.0000 C   0  0  0  0  0  0  0  0  0  0  0  0
    3.4349   -6.0152    0.0000 O   0  0  0  0  0  0  0  0  0  0  0  0
    3.4449   -5.0152    0.0000 C   0  0  0  0  0  0  0  0  0  0  0  0
    2.5779   -4.5065    0.0000 C   0  0  0  0  0  0  0  0  0  0  0  0
    2.5879   -3.5065    0.0000 C   0  0  0  0  0  0  0  0  0  0  0  0
    3.4560   -3.0101    0.0000 C   0  0  0  0  0  0  0  0  0  0  0  0
    3.4615   -2.0101    0.0000 N   0  0  0  0  0  0  0  0  0  0  0  0
    2.5983   -1.5053    0.0000 C   0  0  0  0  0  0  0  0  0  0  0  0
    1.7295   -2.0004    0.0000 O   0  0  0  0  0  0  0  0  0  0  0  0
    2.6039   -0.5053    0.0000 C   0  0  0  0  0  0  0  0  0  0  0  0
    3.4805   -0.0073    0.0000 C   0  0  0  0  0  0  0  0  0  0  0  0
    3.4848    1.0014    0.0000 C   0  0  0  0  0  0  0  0  0  0  0  0
    2.6125    1.5125    0.0000 N   0  0  0  0  0  0  0  0  0  0  0  0
    1.7414    1.0089    0.0000 C   0  0  0  0  0  0  0  0  0  0  0  0
    0.8707    1.5185    0.0000 C   0  0  0  0  0  0  0  0  0  0  0  0
    0.0000    1.0089    0.0000 C   0  0  0  0  0  0  0  0  0  0  0  0
    0.0000    0.0000    0.0000 C   0  0  0  0  0  0  0  0  0  0  0  0
    0.8707   -0.4993    0.0000 C   0  0  0  0  0  0  0  0  0  0  0  0
    1.7371    0.0000    0.0000 C   0  0  0  0  0  0  0  0  0  0  0  0
    4.3229   -3.5188    0.0000 C   0  0  0  0  0  0  0  0  0  0  0  0
    4.3218   -4.5239    0.0000 N   0  0  0  0  0  0  0  0  0  0  0  0
    5.1910   -3.0223    0.0000 C   0  0  0  0  0  0  0  0  0  0  0  0
    6.0550   -3.5259    0.0000 O   0  0  0  0  0  0  0  0  0  0  0  0
    5.1951   -2.0223    0.0000 N   0  0  0  0  0  0  0  0  0  0  0  0
    6.0631   -1.5259    0.0000 C   0  0  0  0  0  0  0  0  0  0  0  0
    6.9271   -2.0294    0.0000 C   0  0  0  0  0  0  0  0  0  0  0  0
    7.1820   -2.9964    0.0000 C   0  0  0  0  0  0  0  0  0  0  0  0
    8.1490   -2.7415    0.0000 C   0  0  0  0  0  0  0  0  0  0  0  0
    7.8941   -1.7745    0.0000 C   0  0  0  0  0  0  0  0  0  0  0  0
  1  2  1  0
  2  3  1  0
  3 21  2  0
  3  4  1  0
  4  5  2  0
  5  6  1  0
  6  7  1  0
  7  8  1  0
  8  9  2  0
  8 10  1  0
 10 19  1  0
 10 11  2  0
 11 12  1  0
 12 13  2  0
 13 14  1  0
 14 19  2  0
 14 15  1  0
 15 16  2  0
 16 17  1  0
 17 18  2  0
 18 19  1  0
  6 20  2  0
 20 21  1  0
 20 22  1  0
 22 23  2  0
 22 24  1  0
 24 25  1  0
 25 26  1  0
 26 29  1  0
 26 27  1  0
 27 28  1  0
 28 29  1  0
M  END
>  <SMILES>  (357) 
COc1ccc(NC(=O)c2ccnc3ccccc23)c(C(=O)NCC2CCC2)n1

>  <CollectionName>  (357) 
chembl

>  <LOG PLASMA PROTEIN BINDING (RAT) (% unbound)>  (357) 
-1.04575749056

>  <Internal ID>  (357) 


>  <Source>  (357) 
AstraZeneca

$$$$
CHEMBL2325622
     RDKit          2D

 35 39  0  0  0  0  0  0  0  0999 V2000
    0.4956    4.9569    0.0000 C   0  0  0  0  0  0  0  0  0  0  0  0
    0.4971    3.9569    0.0000 N   0  0  0  0  0  0  0  0  0  0  0  0
   -0.2089    3.2488    0.0000 C   0  0  0  0  0  0  0  0  0  0  0  0
    0.4993    2.5428    0.0000 C   0  0  0  0  0  0  0  0  0  0  0  0
    1.2052    3.2509    0.0000 C   0  0  0  0  0  0  0  0  0  0  0  0
    0.5008    1.5428    0.0000 N   0  0  0  0  0  0  0  0  0  0  0  0
    1.3133    0.9519    0.0000 N   0  0  0  0  0  0  0  0  0  0  0  0
    1.0015    0.0000    0.0000 C   0  0  0  0  0  0  0  0  0  0  0  0
    0.0000    0.0000    0.0000 C   0  0  0  0  0  0  0  0  0  0  0  0
   -0.3065    0.9519    0.0000 C   0  0  0  0  0  0  0  0  0  0  0  0
   -1.2577    1.2605    0.0000 C   0  0  0  0  0  0  0  0  0  0  0  0
   -1.4642    2.2442    0.0000 C   0  0  0  0  0  0  0  0  0  0  0  0
   -2.4230    2.5459    0.0000 C   0  0  0  0  0  0  0  0  0  0  0  0
   -2.6371    3.5227    0.0000 Cl  0  0  0  0  0  0  0  0  0  0  0  0
   -3.1677    1.8708    0.0000 C   0  0  0  0  0  0  0  0  0  0  0  0
   -2.9537    0.8939    0.0000 C   0  0  0  0  0  0  0  0  0  0  0  0
   -2.0024    0.5854    0.0000 C   0  0  0  0  0  0  0  0  0  0  0  0
   -1.7926   -0.3924    0.0000 O   0  0  0  0  0  0  0  0  0  0  0  0
   -2.5345   -1.0629    0.0000 C   0  0  0  0  0  0  0  0  0  0  0  0
   -2.3261   -2.0410    0.0000 C   0  0  0  0  0  0  0  0  0  0  0  0
   -3.0650   -2.7148    0.0000 C   0  0  0  0  0  0  0  0  0  0  0  0
   -2.8524   -3.6920    0.0000 F   0  0  0  0  0  0  0  0  0  0  0  0
   -4.0221   -2.4075    0.0000 C   0  0  0  0  0  0  0  0  0  0  0  0
   -4.2402   -1.4263    0.0000 C   0  0  0  0  0  0  0  0  0  0  0  0
   -3.4915   -0.7556    0.0000 C   0  0  0  0  0  0  0  0  0  0  0  0
   -3.6999    0.2225    0.0000 F   0  0  0  0  0  0  0  0  0  0  0  0
   -4.7610   -3.0813    0.0000 S   0  0  0  0  0  0  0  0  0  0  0  0
   -5.4348   -2.3424    0.0000 O   0  0  0  0  0  0  0  0  0  0  0  0
   -4.0871   -3.8202    0.0000 O   0  0  0  0  0  0  0  0  0  0  0  0
   -5.4998   -3.7551    0.0000 N   0  0  0  0  0  0  0  0  0  0  0  0
   -5.2857   -4.7319    0.0000 C   0  0  0  0  0  0  0  0  0  0  0  0
   -4.3685   -5.1300    0.0000 N   0  0  0  0  0  0  0  0  0  0  0  0
   -4.4664   -6.1267    0.0000 C   0  0  0  0  0  0  0  0  0  0  0  0
   -5.4442   -6.3439    0.0000 N   0  0  0  0  0  0  0  0  0  0  0  0
   -5.9527   -5.4776    0.0000 S   0  0  0  0  0  0  0  0  0  0  0  0
  1  2  1  0
  2  5  1  0
  2  3  1  0
  3  4  1  0
  4  5  1  0
  4  6  1  0
  6 10  1  0
  6  7  1  0
  7  8  2  0
  8  9  1  0
  9 10  2  0
 10 11  1  0
 11 17  1  0
 11 12  2  0
 12 13  1  0
 13 14  1  0
 13 15  2  0
 15 16  1  0
 16 17  2  0
 17 18  1  0
 18 19  1  0
 19 25  1  0
 19 20  2  0
 20 21  1  0
 21 22  1  0
 21 23  2  0
 23 24  1  0
 24 25  2  0
 25 26  1  0
 23 27  1  0
 27 28  2  0
 27 29  2  0
 27 30  1  0
 30 31  1  0
 31 35  1  0
 31 32  2  0
 32 33  1  0
 33 34  2  0
 34 35  1  0
M  END
>  <SMILES>  (358) 
CN1CC(n2nccc2-c2cc(Cl)ccc2Oc2cc(F)c(S(=O)(=O)Nc3ncns3)cc2F)C1

>  <CollectionName>  (358) 
chembl

>  <LOG PLASMA PROTEIN BINDING (RAT) (% unbound)>  (358) 
0.54406804435

>  <Internal ID>  (358) 


>  <Source>  (358) 
AstraZeneca

$$$$
CHEMBL2325635
     RDKit          2D

 35 39  0  0  0  0  0  0  0  0999 V2000
   -2.6371    3.5227    0.0000 Cl  0  0  0  0  0  0  0  0  0  0  0  0
   -2.4230    2.5459    0.0000 C   0  0  0  0  0  0  0  0  0  0  0  0
   -3.1677    1.8708    0.0000 C   0  0  0  0  0  0  0  0  0  0  0  0
   -2.9537    0.8939    0.0000 C   0  0  0  0  0  0  0  0  0  0  0  0
   -2.0024    0.5854    0.0000 C   0  0  0  0  0  0  0  0  0  0  0  0
   -1.7926   -0.3924    0.0000 O   0  0  0  0  0  0  0  0  0  0  0  0
   -2.5345   -1.0629    0.0000 C   0  0  0  0  0  0  0  0  0  0  0  0
   -2.3261   -2.0410    0.0000 C   0  0  0  0  0  0  0  0  0  0  0  0
   -3.0650   -2.7148    0.0000 C   0  0  0  0  0  0  0  0  0  0  0  0
   -4.0221   -2.4074    0.0000 C   0  0  0  0  0  0  0  0  0  0  0  0
   -4.2402   -1.4263    0.0000 C   0  0  0  0  0  0  0  0  0  0  0  0
   -3.4915   -0.7556    0.0000 C   0  0  0  0  0  0  0  0  0  0  0  0
   -3.6999    0.2225    0.0000 C   0  0  0  0  0  0  0  0  0  0  0  0
   -3.9082    1.2006    0.0000 N   0  0  0  0  0  0  0  0  0  0  0  0
   -4.7610   -3.0813    0.0000 S   0  0  0  0  0  0  0  0  0  0  0  0
   -4.0871   -3.8202    0.0000 O   0  0  0  0  0  0  0  0  0  0  0  0
   -5.4348   -2.3424    0.0000 O   0  0  0  0  0  0  0  0  0  0  0  0
   -5.4998   -3.7551    0.0000 N   0  0  0  0  0  0  0  0  0  0  0  0
   -6.4528   -3.4521    0.0000 C   0  0  0  0  0  0  0  0  0  0  0  0
   -7.2600   -4.0452    0.0000 N   0  0  0  0  0  0  0  0  0  0  0  0
   -8.0748   -3.4629    0.0000 C   0  0  0  0  0  0  0  0  0  0  0  0
   -7.7706   -2.5102    0.0000 C   0  0  0  0  0  0  0  0  0  0  0  0
   -8.3650   -1.7061    0.0000 Cl  0  0  0  0  0  0  0  0  0  0  0  0
   -6.7703   -2.4989    0.0000 S   0  0  0  0  0  0  0  0  0  0  0  0
   -1.2577    1.2605    0.0000 C   0  0  0  0  0  0  0  0  0  0  0  0
   -1.4642    2.2442    0.0000 C   0  0  0  0  0  0  0  0  0  0  0  0
   -0.3065    0.9519    0.0000 C   0  0  0  0  0  0  0  0  0  0  0  0
    0.0000    0.0000    0.0000 C   0  0  0  0  0  0  0  0  0  0  0  0
    1.0015    0.0000    0.0000 C   0  0  0  0  0  0  0  0  0  0  0  0
    1.3133    0.9519    0.0000 N   0  0  0  0  0  0  0  0  0  0  0  0
    0.5008    1.5428    0.0000 N   0  0  0  0  0  0  0  0  0  0  0  0
    0.4993    2.5428    0.0000 C   0  0  0  0  0  0  0  0  0  0  0  0
   -0.2089    3.2488    0.0000 C   0  0  0  0  0  0  0  0  0  0  0  0
    0.4971    3.9569    0.0000 N   0  0  0  0  0  0  0  0  0  0  0  0
    1.2052    3.2509    0.0000 C   0  0  0  0  0  0  0  0  0  0  0  0
  1  2  1  0
  2 26  2  0
  2  3  1  0
  3  4  2  0
  4  5  1  0
  5  6  1  0
  6  7  1  0
  7 12  1  0
  7  8  2  0
  8  9  1  0
  9 10  2  0
 10 11  1  0
 11 12  2  0
 12 13  1  0
 13 14  3  0
 10 15  1  0
 15 16  2  0
 15 17  2  0
 15 18  1  0
 18 19  1  0
 19 24  1  0
 19 20  2  0
 20 21  1  0
 21 22  2  0
 22 23  1  0
 22 24  1  0
  5 25  2  0
 25 26  1  0
 25 27  1  0
 27 31  1  0
 27 28  2  0
 28 29  1  0
 29 30  2  0
 30 31  1  0
 31 32  1  0
 32 35  1  0
 32 33  1  0
 33 34  1  0
 34 35  1  0
M  END
>  <SMILES>  (359) 
N#Cc1cc(S(=O)(=O)Nc2ncc(Cl)s2)ccc1Oc1ccc(Cl)cc1-c1ccnn1C1CNC1

>  <CollectionName>  (359) 
chembl

>  <LOG PLASMA PROTEIN BINDING (RAT) (% unbound)>  (359) 
0.152288344383

>  <Internal ID>  (359) 


>  <Source>  (359) 
AstraZeneca

$$$$
CHEMBL1297
     RDKit          2D

 18 19  0  0  1  0  0  0  0  0999 V2000
    5.2050    4.0103    0.0000 C   0  0  0  0  0  0  0  0  0  0  0  0
    4.3375    4.5077    0.0000 C   0  0  0  0  0  0  0  0  0  0  0  0
    4.3345    5.5077    0.0000 C   0  0  0  0  0  0  0  0  0  0  0  0
    3.4670    6.0052    0.0000 O   0  0  0  0  0  0  0  0  0  0  0  0
    5.1991    6.0103    0.0000 O   0  0  0  0  0  0  0  0  0  0  0  0
    3.4729    4.0052    0.0000 C   0  0  0  0  0  0  0  0  0  0  0  0
    2.6024    4.5078    0.0000 C   0  0  0  0  0  0  0  0  0  0  0  0
    1.7378    4.0053    0.0000 C   0  0  0  0  0  0  0  0  0  0  0  0
    1.7349    3.0052    0.0000 C   0  0  0  0  0  0  0  0  0  0  0  0
    2.6054    2.5026    0.0000 C   0  0  0  0  0  0  0  0  0  0  0  0
    2.6025    1.5026    0.0000 O   0  0  0  0  0  0  0  0  0  0  0  0
    1.7350    1.0052    0.0000 C   0  0  0  0  0  0  0  0  0  0  0  0
    1.7350   -0.0000    0.0000 C   0  0  0  0  0  0  0  0  0  0  0  0
    0.8675   -0.4975    0.0000 C   0  0  0  0  0  0  0  0  0  0  0  0
    0.0000    0.0000    0.0000 C   0  0  0  0  0  0  0  0  0  0  0  0
    0.0000    1.0052    0.0000 C   0  0  0  0  0  0  0  0  0  0  0  0
    0.8675    1.5129    0.0000 C   0  0  0  0  0  0  0  0  0  0  0  0
    3.4789    3.0001    0.0000 C   0  0  0  0  0  0  0  0  0  0  0  0
  1  2  1  0
  2  3  1  0
  3  4  2  0
  3  5  1  0
  2  6  1  0
  6 18  2  0
  6  7  1  0
  7  8  2  0
  8  9  1  0
  9 10  2  0
 10 11  1  0
 11 12  1  0
 12 17  1  0
 12 13  2  0
 13 14  1  0
 14 15  2  0
 15 16  1  0
 16 17  2  0
 10 18  1  0
M  END
>  <SMILES>  (360) 
CC(C(=O)O)c1cccc(Oc2ccccc2)c1

>  <CollectionName>  (360) 
chembl

>  <LOG PLASMA PROTEIN BINDING (RAT) (% unbound)>  (360) 
0.164352855784

>  <Internal ID>  (360) 


>  <Source>  (360) 
AstraZeneca

$$$$
CHEMBL108
     RDKit          2D

 18 20  0  0  0  0  0  0  0  0999 V2000
    1.9852   -2.5192    0.0000 N   0  0  0  0  0  0  0  0  0  0  0  0
    2.8490   -2.0154    0.0000 C   0  0  0  0  0  0  0  0  0  0  0  0
    3.7172   -2.5116    0.0000 O   0  0  0  0  0  0  0  0  0  0  0  0
    2.8446   -1.0154    0.0000 N   0  0  0  0  0  0  0  0  0  0  0  0
    1.9312   -0.5840    0.0000 C   0  0  0  0  0  0  0  0  0  0  0  0
    1.2003   -1.2778    0.0000 C   0  0  0  0  0  0  0  0  0  0  0  0
    0.2313   -0.9837    0.0000 C   0  0  0  0  0  0  0  0  0  0  0  0
    0.0000    0.0000    0.0000 C   0  0  0  0  0  0  0  0  0  0  0  0
    0.7377    0.6898    0.0000 C   0  0  0  0  0  0  0  0  0  0  0  0
    1.6999    0.3997    0.0000 C   0  0  0  0  0  0  0  0  0  0  0  0
    2.3292    1.1930    0.0000 C   0  0  0  0  0  0  0  0  0  0  0  0
    3.3333    1.1944    0.0000 C   0  0  0  0  0  0  0  0  0  0  0  0
    3.9620    0.4062    0.0000 C   0  0  0  0  0  0  0  0  0  0  0  0
    4.9146    0.7195    0.0000 C   0  0  0  0  0  0  0  0  0  0  0  0
    5.6612    0.0428    0.0000 C   0  0  0  0  0  0  0  0  0  0  0  0
    5.4510   -0.9405    0.0000 C   0  0  0  0  0  0  0  0  0  0  0  0
    4.4941   -1.2472    0.0000 C   0  0  0  0  0  0  0  0  0  0  0  0
    3.7517   -0.5772    0.0000 C   0  0  0  0  0  0  0  0  0  0  0  0
  1  2  1  0
  2  3  2  0
  2  4  1  0
  4 18  1  0
  4  5  1  0
  5 10  2  0
  5  6  1  0
  6  7  2  0
  7  8  1  0
  8  9  2  0
  9 10  1  0
 10 11  1  0
 11 12  2  0
 12 13  1  0
 13 18  2  0
 13 14  1  0
 14 15  2  0
 15 16  1  0
 16 17  2  0
 17 18  1  0
M  END
>  <SMILES>  (361) 
NC(=O)N1c2ccccc2C=Cc2ccccc21

>  <CollectionName>  (361) 
chembl

>  <LOG PLASMA PROTEIN BINDING (RAT) (% unbound)>  (361) 
1.4255342205

>  <Internal ID>  (361) 


>  <Source>  (361) 
AstraZeneca

$$$$
CHEMBL1643194
     RDKit          2D

 33 36  0  0  1  0  0  0  0  0999 V2000
    7.2859   -1.2414    0.0000 C   0  0  0  0  0  0  0  0  0  0  0  0
    6.2859   -1.2356    0.0000 C   0  0  0  0  0  0  0  0  0  0  0  0
    5.7910   -0.3607    0.0000 C   0  0  0  0  0  0  0  0  0  0  0  0
    4.7858   -0.3637    0.0000 C   0  0  0  0  0  0  0  0  0  0  0  0
    4.2858    0.5023    0.0000 C   0  0  0  0  0  0  0  0  0  0  0  0
    3.2858    0.5022    0.0000 N   0  0  0  0  0  0  0  0  0  0  0  0
    2.6938   -0.3126    0.0000 C   0  0  0  0  0  0  0  0  0  0  0  0
    1.7360   -0.0013    0.0000 C   0  0  0  0  0  0  0  0  0  0  0  0
    0.8680   -0.4979    0.0000 C   0  0  0  0  0  0  0  0  0  0  0  0
    0.0000    0.0000    0.0000 C   0  0  0  0  0  0  0  0  0  0  0  0
    0.0000    1.0058    0.0000 C   0  0  0  0  0  0  0  0  0  0  0  0
    0.8680    1.5137    0.0000 C   0  0  0  0  0  0  0  0  0  0  0  0
    1.7360    1.0058    0.0000 C   0  0  0  0  0  0  0  0  0  0  0  0
    2.6938    1.3168    0.0000 C   0  0  0  0  0  0  0  0  0  0  0  0
    3.0029    2.2678    0.0000 C   0  0  0  0  0  0  0  0  0  0  0  0
    3.9810    2.4757    0.0000 O   0  0  0  0  0  0  0  0  0  0  0  0
    2.3337    3.0110    0.0000 N   0  0  0  0  0  0  0  0  0  0  0  0
    2.6428    3.9621    0.0000 C   0  0  0  0  0  0  0  0  0  0  0  0
    1.9748    4.7062    0.0000 C   0  0  0  0  0  0  0  0  0  0  0  0
    2.2797    5.6586    0.0000 C   0  0  0  0  0  0  0  0  0  0  0  0
    3.2626    5.8690    0.0000 C   0  0  0  0  0  0  0  0  0  0  0  0
    3.5675    6.8214    0.0000 Cl  0  0  0  0  0  0  0  0  0  0  0  0
    3.9406    5.1270    0.0000 C   0  0  0  0  0  0  0  0  0  0  0  0
    3.6257    4.1724    0.0000 C   0  0  0  0  0  0  0  0  0  0  0  0
    4.2937    3.4283    0.0000 Cl  0  0  0  0  0  0  0  0  0  0  0  0
    4.2807   -1.2328    0.0000 C   0  0  0  0  0  0  0  0  0  0  0  0
    4.7808   -2.0989    0.0000 C   0  0  0  0  0  0  0  0  0  0  0  0
    5.7808   -2.1047    0.0000 C   0  0  0  0  0  0  0  0  0  0  0  0
    6.2770   -2.9728    0.0000 O   0  0  0  0  0  0  0  0  0  0  0  0
    7.2770   -2.9772    0.0000 C   0  0  0  0  0  0  0  0  0  0  0  0
    7.7732   -3.8454    0.0000 C   0  0  0  0  0  0  0  0  0  0  0  0
    7.2695   -4.7092    0.0000 O   0  0  0  0  0  0  0  0  0  0  0  0
    8.7732   -3.8497    0.0000 O   0  0  0  0  0  0  0  0  0  0  0  0
  1  2  1  0
  2 28  2  0
  2  3  1  0
  3  4  2  0
  4  5  1  0
  5  6  1  0
  6 14  1  0
  6  7  1  0
  7  8  1  0
  8 13  2  0
  8  9  1  0
  9 10  2  0
 10 11  1  0
 11 12  2  0
 12 13  1  0
 13 14  1  0
 14 15  1  0
 15 16  2  0
 15 17  1  0
 17 18  1  0
 18 24  1  0
 18 19  2  0
 19 20  1  0
 20 21  2  0
 21 22  1  0
 21 23  1  0
 23 24  2  0
 24 25  1  0
  4 26  1  0
 26 27  2  0
 27 28  1  0
 28 29  1  0
 29 30  1  0
 30 31  1  0
 31 32  2  0
 31 33  1  0
M  END
>  <SMILES>  (362) 
Cc1cc(CN2Cc3ccccc3C2C(=O)Nc2ccc(Cl)cc2Cl)ccc1OCC(=O)O

>  <CollectionName>  (362) 
chembl

>  <LOG PLASMA PROTEIN BINDING (RAT) (% unbound)>  (362) 
-0.853871964322

>  <Internal ID>  (362) 


>  <Source>  (362) 
AstraZeneca

$$$$
CHEMBL1669170
     RDKit          2D

 39 44  0  0  0  0  0  0  0  0999 V2000
   -0.8645   -1.4975    0.0000 O   0  0  0  0  0  0  0  0  0  0  0  0
    0.0015   -1.9975    0.0000 C   0  0  0  0  0  0  0  0  0  0  0  0
    0.8675   -1.4975    0.0000 C   0  0  0  0  0  0  0  0  0  0  0  0
    0.8675   -0.4975    0.0000 N   0  0  0  0  0  0  0  0  0  0  0  0
    0.0000    0.0000    0.0000 C   0  0  0  0  0  0  0  0  0  0  0  0
    0.0000    1.0052    0.0000 C   0  0  0  0  0  0  0  0  0  0  0  0
    0.8675    1.5129    0.0000 O   0  0  0  0  0  0  0  0  0  0  0  0
    1.7350    1.0052    0.0000 C   0  0  0  0  0  0  0  0  0  0  0  0
    1.7350    0.0000    0.0000 C   0  0  0  0  0  0  0  0  0  0  0  0
    0.0015   -2.9975    0.0000 N   0  0  0  0  0  0  0  0  0  0  0  0
   -0.8645   -3.4975    0.0000 C   0  0  0  0  0  0  0  0  0  0  0  0
   -1.7313   -2.9987    0.0000 C   0  0  0  0  0  0  0  0  0  0  0  0
   -2.5995   -3.4950    0.0000 C   0  0  0  0  0  0  0  0  0  0  0  0
   -2.6010   -4.5002    0.0000 C   0  0  0  0  0  0  0  0  0  0  0  0
   -1.7342   -5.0091    0.0000 C   0  0  0  0  0  0  0  0  0  0  0  0
   -0.8660   -4.5027    0.0000 C   0  0  0  0  0  0  0  0  0  0  0  0
    0.0008   -5.0014    0.0000 C   0  0  0  0  0  0  0  0  0  0  0  0
   -0.0007   -6.0066    0.0000 C   0  0  0  0  0  0  0  0  0  0  0  0
    0.8661   -6.5054    0.0000 C   0  0  0  0  0  0  0  0  0  0  0  0
    1.7343   -6.0091    0.0000 C   0  0  0  0  0  0  0  0  0  0  0  0
    1.7358   -5.0039    0.0000 C   0  0  0  0  0  0  0  0  0  0  0  0
    0.8690   -4.4950    0.0000 C   0  0  0  0  0  0  0  0  0  0  0  0
   -3.4692   -4.9964    0.0000 C   0  0  0  0  0  0  0  0  0  0  0  0
   -3.4793   -6.0021    0.0000 C   0  0  0  0  0  0  0  0  0  0  0  0
   -4.3523   -6.5014    0.0000 C   0  0  0  0  0  0  0  0  0  0  0  0
   -5.2154   -5.9951    0.0000 C   0  0  0  0  0  0  0  0  0  0  0  0
   -5.2153   -4.9951    0.0000 C   0  0  0  0  0  0  0  0  0  0  0  0
   -6.0813   -4.4921    0.0000 C   0  0  0  0  0  0  0  0  0  0  0  0
   -6.9479   -4.9910    0.0000 O   0  0  0  0  0  0  0  0  0  0  0  0
   -6.0813   -3.4858    0.0000 C   0  0  0  0  0  0  0  0  0  0  0  0
   -5.2078   -2.9847    0.0000 C   0  0  0  0  0  0  0  0  0  0  0  0
   -4.3342   -3.4898    0.0000 O   0  0  0  0  0  0  0  0  0  0  0  0
   -4.3419   -4.4940    0.0000 C   0  0  0  0  0  0  0  0  0  0  0  0
   -5.2061   -1.9847    0.0000 N   0  0  0  0  0  0  0  0  0  0  0  0
   -4.3377   -1.4887    0.0000 C   0  0  0  0  0  0  0  0  0  0  0  0
   -4.3360   -0.4835    0.0000 C   0  0  0  0  0  0  0  0  0  0  0  0
   -5.2026    0.0257    0.0000 O   0  0  0  0  0  0  0  0  0  0  0  0
   -6.0710   -0.4805    0.0000 C   0  0  0  0  0  0  0  0  0  0  0  0
   -6.0727   -1.4857    0.0000 C   0  0  0  0  0  0  0  0  0  0  0  0
  1  2  2  0
  2  3  1  0
  3  4  1  0
  4  9  1  0
  4  5  1  0
  5  6  1  0
  6  7  1  0
  7  8  1  0
  8  9  1  0
  2 10  1  0
 10 11  1  0
 11 16  1  0
 11 12  2  0
 12 13  1  0
 13 14  2  0
 14 15  1  0
 15 16  2  0
 16 17  1  0
 17 22  1  0
 17 18  2  0
 18 19  1  0
 19 20  2  0
 20 21  1  0
 21 22  2  0
 14 23  1  0
 23 33  1  0
 23 24  2  0
 24 25  1  0
 25 26  2  0
 26 27  1  0
 27 33  2  0
 27 28  1  0
 28 29  2  0
 28 30  1  0
 30 31  2  0
 31 32  1  0
 32 33  1  0
 31 34  1  0
 34 39  1  0
 34 35  1  0
 35 36  1  0
 36 37  1  0
 37 38  1  0
 38 39  1  0
M  END
>  <SMILES>  (363) 
O=C(CN1CCOCC1)Nc1ccc(-c2cccc3c(=O)cc(N4CCOCC4)oc23)cc1-c1ccccc1

>  <CollectionName>  (363) 
chembl

>  <LOG PLASMA PROTEIN BINDING (RAT) (% unbound)>  (363) 
0.801403710017

>  <Internal ID>  (363) 


>  <Source>  (363) 
AstraZeneca

$$$$
CHEMBL1683035
     RDKit          2D

 31 34  0  0  0  0  0  0  0  0999 V2000
   -0.8704    2.5031    0.0000 C   0  0  0  0  0  0  0  0  0  0  0  0
   -0.8675    1.5031    0.0000 O   0  0  0  0  0  0  0  0  0  0  0  0
   -0.0000    1.0056    0.0000 C   0  0  0  0  0  0  0  0  0  0  0  0
    0.8679    1.5135    0.0000 C   0  0  0  0  0  0  0  0  0  0  0  0
    1.7358    1.0056    0.0000 C   0  0  0  0  0  0  0  0  0  0  0  0
    2.6012    1.5123    0.0000 N   0  0  0  0  0  0  0  0  0  0  0  0
    3.4735    1.0079    0.0000 N   0  0  0  0  0  0  0  0  0  0  0  0
    3.4748    0.0023    0.0000 C   0  0  0  0  0  0  0  0  0  0  0  0
    4.3408   -0.4978    0.0000 C   0  0  0  0  0  0  0  0  0  0  0  0
    4.3407   -1.4978    0.0000 O   0  0  0  0  0  0  0  0  0  0  0  0
    5.2069    0.0022    0.0000 N   0  0  0  0  0  0  0  0  0  0  0  0
    2.6038   -0.4989    0.0000 C   0  0  0  0  0  0  0  0  0  0  0  0
    2.6037   -1.4989    0.0000 N   0  0  0  0  0  0  0  0  0  0  0  0
    1.7377   -1.9988    0.0000 C   0  0  0  0  0  0  0  0  0  0  0  0
    0.8709   -1.5000    0.0000 C   0  0  0  0  0  0  0  0  0  0  0  0
    0.0027   -1.9962    0.0000 C   0  0  0  0  0  0  0  0  0  0  0  0
    0.0011   -3.0014    0.0000 C   0  0  0  0  0  0  0  0  0  0  0  0
   -0.8671   -3.4975    0.0000 F   0  0  0  0  0  0  0  0  0  0  0  0
    0.8679   -3.5104    0.0000 C   0  0  0  0  0  0  0  0  0  0  0  0
    1.7361   -3.0040    0.0000 C   0  0  0  0  0  0  0  0  0  0  0  0
    2.6029   -3.5028    0.0000 F   0  0  0  0  0  0  0  0  0  0  0  0
    1.7371    0.0000    0.0000 C   0  0  0  0  0  0  0  0  0  0  0  0
    0.8679   -0.4977    0.0000 C   0  0  0  0  0  0  0  0  0  0  0  0
    0.0000    0.0000    0.0000 C   0  0  0  0  0  0  0  0  0  0  0  0
   -0.8653   -0.5013    0.0000 N   0  0  0  0  0  0  0  0  0  0  0  0
   -1.7395   -0.0051    0.0000 C   0  0  0  0  0  0  0  0  0  0  0  0
   -2.6092   -0.5090    0.0000 C   0  0  0  0  0  0  0  0  0  0  0  0
   -2.6049   -1.5090    0.0000 N   0  0  0  0  0  0  0  0  0  0  0  0
   -3.4702   -2.0103    0.0000 C   0  0  0  0  0  0  0  0  0  0  0  0
   -1.7395   -2.0103    0.0000 C   0  0  0  0  0  0  0  0  0  0  0  0
   -0.8698   -1.5064    0.0000 C   0  0  0  0  0  0  0  0  0  0  0  0
  1  2  1  0
  2  3  1  0
  3 24  2  0
  3  4  1  0
  4  5  2  0
  5 22  1  0
  5  6  1  0
  6  7  2  0
  7  8  1  0
  8  9  1  0
  9 10  2  0
  9 11  1  0
  8 12  2  0
 12 13  1  0
 13 14  1  0
 14 20  1  0
 14 15  2  0
 15 16  1  0
 16 17  2  0
 17 18  1  0
 17 19  1  0
 19 20  2  0
 20 21  1  0
 12 22  1  0
 22 23  2  0
 23 24  1  0
 24 25  1  0
 25 31  1  0
 25 26  1  0
 26 27  1  0
 27 28  1  0
 28 29  1  0
 28 30  1  0
 30 31  1  0
M  END
>  <SMILES>  (364) 
COc1cc2nnc(C(N)=O)c(Nc3ccc(F)cc3F)c2cc1N1CCN(C)CC1

>  <CollectionName>  (364) 
chembl

>  <LOG PLASMA PROTEIN BINDING (RAT) (% unbound)>  (364) 
1.19589965241

>  <Internal ID>  (364) 


>  <Source>  (364) 
AstraZeneca

$$$$
CHEMBL1161
     RDKit          2D

 35 39  0  0  1  0  0  0  0  0999 V2000
    2.6694    3.7108    0.0000 C   0  0  0  0  0  0  0  0  0  0  0  0
    3.6687    3.6727    0.0000 C   0  0  0  0  0  0  0  0  0  0  0  0
    4.2046    4.5289    0.0000 C   0  0  0  0  0  0  0  0  0  0  0  0
    5.6827    3.6036    0.0000 C   0  0  0  0  0  0  0  0  0  0  0  0
    6.6877    3.5672    0.0000 C   0  0  0  0  0  0  0  0  0  0  0  0
    7.2207    4.4190    0.0000 C   0  0  0  0  0  0  0  0  0  0  0  0
    8.2250    4.3829    0.0000 C   0  0  0  0  0  0  0  0  0  0  0  0
    8.6960    3.5008    0.0000 C   0  0  0  0  0  0  0  0  0  0  0  0
    9.6969    3.4627    0.0000 C   0  0  0  0  0  0  0  0  0  0  0  0
   10.1696    2.5810    0.0000 C   0  0  0  0  0  0  0  0  0  0  0  0
   11.1690    2.5480    0.0000 O   0  0  0  0  0  0  0  0  0  0  0  0
    9.6371    1.7279    0.0000 C   0  0  0  0  0  0  0  0  0  0  0  0
    8.6319    1.7566    0.0000 C   0  0  0  0  0  0  0  0  0  0  0  0
    8.1646    2.6471    0.0000 C   0  0  0  0  0  0  0  0  0  0  0  0
    7.6352    1.7987    0.0000 C   0  0  0  0  0  0  0  0  0  0  0  0
    7.1622    2.6755    0.0000 C   0  0  0  0  0  0  0  0  0  0  0  0
    7.6892    3.5253    0.0000 Cl  0  0  0  0  0  0  0  0  0  0  0  0
    6.6326    1.8186    0.0000 C   0  0  0  0  0  0  0  0  0  0  0  0
    7.1035    0.9364    0.0000 O   0  0  0  0  0  0  0  0  0  0  0  0
    5.6212    1.8557    0.0000 C   0  0  0  0  0  0  0  0  0  0  0  0
    5.1468    2.7475    0.0000 C   0  0  0  0  0  0  0  0  0  0  0  0
    4.6747    3.6290    0.0000 C   0  0  0  0  0  0  0  0  0  0  0  0
    4.1392    2.7758    0.0000 C   0  0  0  0  0  0  0  0  0  0  0  0
    2.4741    2.2374    0.0000 O   0  0  0  0  0  0  0  0  0  0  0  0
    2.2648    1.2596    0.0000 C   0  0  0  0  0  0  0  0  0  0  0  0
    3.0070    0.5894    0.0000 O   0  0  0  0  0  0  0  0  0  0  0  0
    1.3133    0.9519    0.0000 C   0  0  0  0  0  0  0  0  0  0  0  0
    0.5008    1.5428    0.0000 O   0  0  0  0  0  0  0  0  0  0  0  0
   -0.3065    0.9519    0.0000 C   0  0  0  0  0  0  0  0  0  0  0  0
    0.0000    0.0000    0.0000 C   0  0  0  0  0  0  0  0  0  0  0  0
    1.0015    0.0000    0.0000 C   0  0  0  0  0  0  0  0  0  0  0  0
    4.3874    1.0435    0.0000 C   0  0  0  0  0  0  0  0  0  0  0  0
    3.6011    0.4257    0.0000 O   0  0  0  0  0  0  0  0  0  0  0  0
    5.3156    0.6714    0.0000 C   0  0  0  0  0  0  0  0  0  0  0  0
    5.4575   -0.3185    0.0000 Cl  0  0  0  0  0  0  0  0  0  0  0  0
  2  1  1  6
  2 23  1  0
  2  3  1  0
  4  3  1  1
  4 21  1  0
  4  5  1  0
  5 16  1  0
  5  6  1  6
  6  7  1  0
  7  8  1  0
  8 14  1  0
  8  9  2  0
  9 10  1  0
 10 11  2  0
 10 12  1  0
 12 13  2  0
 13 14  1  0
 14 15  1  1
 14 16  1  0
 16 17  1  6
 16 18  1  0
 18 19  1  1
 18 20  1  0
 20 21  1  0
 21 22  1  1
 21 23  1  0
 23 24  1  6
 24 25  1  0
 25 26  2  0
 25 27  1  0
 27 31  2  0
 27 28  1  0
 28 29  1  0
 29 30  2  0
 30 31  1  0
 23 32  1  0
 32 33  2  0
 32 34  1  0
 34 35  1  0
M  END
>  <SMILES>  (365) 
C[C@@H]1C[C@H]2[C@@H]3CCC4=CC(=O)C=C[C@]4(C)[C@@]3(Cl)[C@@H](O)C[C@]2(C)[C@@]1(OC(=O)c1ccco1)C(=O)CCl

>  <CollectionName>  (365) 
chembl

>  <LOG PLASMA PROTEIN BINDING (RAT) (% unbound)>  (365) 
-1.0

>  <Internal ID>  (365) 


>  <Source>  (365) 
AstraZeneca

$$$$
CHEMBL1614705
     RDKit          2D

 29 32  0  0  0  0  0  0  0  0999 V2000
    7.1825   -1.1975    0.0000 O   0  0  0  0  0  0  0  0  0  0  0  0
    6.2320   -1.5082    0.0000 C   0  0  0  0  0  0  0  0  0  0  0  0
    5.4877   -0.8404    0.0000 C   0  0  0  0  0  0  0  0  0  0  0  0
    5.6939    0.1381    0.0000 O   0  0  0  0  0  0  0  0  0  0  0  0
    4.5372   -1.1511    0.0000 N   0  0  0  0  0  0  0  0  0  0  0  0
    3.7851   -0.4842    0.0000 C   0  0  0  0  0  0  0  0  0  0  0  0
    2.8296   -0.7965    0.0000 C   0  0  0  0  0  0  0  0  0  0  0  0
    2.6263   -1.7757    0.0000 C   0  0  0  0  0  0  0  0  0  0  0  0
    3.3687   -2.4457    0.0000 C   0  0  0  0  0  0  0  0  0  0  0  0
    4.3241   -2.1334    0.0000 C   0  0  0  0  0  0  0  0  0  0  0  0
    1.6758   -2.0864    0.0000 C   0  0  0  0  0  0  0  0  0  0  0  0
    1.3712   -3.0393    0.0000 N   0  0  0  0  0  0  0  0  0  0  0  0
    0.3666   -3.0402    0.0000 N   0  0  0  0  0  0  0  0  0  0  0  0
    0.0581   -2.0872    0.0000 C   0  0  0  0  0  0  0  0  0  0  0  0
   -0.8930   -1.7784    0.0000 C   0  0  0  0  0  0  0  0  0  0  0  0
   -1.1025   -0.8005    0.0000 C   0  0  0  0  0  0  0  0  0  0  0  0
   -2.0523   -0.4875    0.0000 C   0  0  0  0  0  0  0  0  0  0  0  0
   -2.8002   -1.1591    0.0000 C   0  0  0  0  0  0  0  0  0  0  0  0
   -3.7499   -0.8460    0.0000 Cl  0  0  0  0  0  0  0  0  0  0  0  0
   -2.5983   -2.1438    0.0000 C   0  0  0  0  0  0  0  0  0  0  0  0
   -1.6409   -2.4500    0.0000 C   0  0  0  0  0  0  0  0  0  0  0  0
   -1.4314   -3.4278    0.0000 F   0  0  0  0  0  0  0  0  0  0  0  0
    0.8675   -1.4975    0.0000 C   0  0  0  0  0  0  0  0  0  0  0  0
    0.8675   -0.4975    0.0000 C   0  0  0  0  0  0  0  0  0  0  0  0
    0.0000    0.0000    0.0000 C   0  0  0  0  0  0  0  0  0  0  0  0
    0.0000    1.0052    0.0000 C   0  0  0  0  0  0  0  0  0  0  0  0
    0.8675    1.5129    0.0000 N   0  0  0  0  0  0  0  0  0  0  0  0
    1.7350    1.0052    0.0000 C   0  0  0  0  0  0  0  0  0  0  0  0
    1.7350    0.0000    0.0000 N   0  0  0  0  0  0  0  0  0  0  0  0
  1  2  1  0
  2  3  1  0
  3  4  2  0
  3  5  1  0
  5 10  1  0
  5  6  1  0
  6  7  1  0
  7  8  1  0
  8  9  1  0
  9 10  1  0
  8 11  1  0
 11 23  2  0
 11 12  1  0
 12 13  1  0
 13 14  2  0
 14 15  1  0
 15 21  1  0
 15 16  2  0
 16 17  1  0
 17 18  2  0
 18 19  1  0
 18 20  1  0
 20 21  2  0
 21 22  1  0
 14 23  1  0
 23 24  1  0
 24 29  1  0
 24 25  2  0
 25 26  1  0
 26 27  2  0
 27 28  1  0
 28 29  2  0
M  END
>  <SMILES>  (366) 
O=C(CO)N1CCC(c2[nH]nc(-c3ccc(Cl)cc3F)c2-c2ccncn2)CC1

>  <CollectionName>  (366) 
chembl

>  <LOG PLASMA PROTEIN BINDING (RAT) (% unbound)>  (366) 
1.5101426994

>  <Internal ID>  (366) 


>  <Source>  (366) 
AstraZeneca

$$$$
CHEMBL2147306
     RDKit          2D

 33 35  0  0  0  0  0  0  0  0999 V2000
   -5.2139    5.0002    0.0000 C   0  0  0  0  0  0  0  0  0  0  0  0
   -6.0800    4.5002    0.0000 O   0  0  0  0  0  0  0  0  0  0  0  0
   -6.0800    3.5002    0.0000 C   0  0  0  0  0  0  0  0  0  0  0  0
   -6.9519    3.0002    0.0000 N   0  0  0  0  0  0  0  0  0  0  0  0
   -6.9430    1.9951    0.0000 C   0  0  0  0  0  0  0  0  0  0  0  0
   -6.0710    1.4951    0.0000 C   0  0  0  0  0  0  0  0  0  0  0  0
   -5.2079    2.0002    0.0000 C   0  0  0  0  0  0  0  0  0  0  0  0
   -5.2080    3.0002    0.0000 N   0  0  0  0  0  0  0  0  0  0  0  0
   -6.0666    0.4951    0.0000 C   0  0  0  0  0  0  0  0  0  0  0  0
   -6.9319   -0.0164    0.0000 C   0  0  0  0  0  0  0  0  0  0  0  0
   -7.8016    0.4772    0.0000 C   0  0  0  0  0  0  0  0  0  0  0  0
   -6.9275   -1.0216    0.0000 C   0  0  0  0  0  0  0  0  0  0  0  0
   -6.0578   -1.5153    0.0000 C   0  0  0  0  0  0  0  0  0  0  0  0
   -5.1925   -1.0140    0.0000 C   0  0  0  0  0  0  0  0  0  0  0  0
   -4.3250   -1.5114    0.0000 F   0  0  0  0  0  0  0  0  0  0  0  0
   -5.1969   -0.0088    0.0000 C   0  0  0  0  0  0  0  0  0  0  0  0
   -4.3316    0.4925    0.0000 C   0  0  0  0  0  0  0  0  0  0  0  0
   -3.4648   -0.0063    0.0000 C   0  0  0  0  0  0  0  0  0  0  0  0
   -2.5995    0.4950    0.0000 N   0  0  0  0  0  0  0  0  0  0  0  0
   -1.7328   -0.0038    0.0000 C   0  0  0  0  0  0  0  0  0  0  0  0
   -1.7313   -1.0038    0.0000 O   0  0  0  0  0  0  0  0  0  0  0  0
   -0.8675    0.4975    0.0000 C   0  0  0  0  0  0  0  0  0  0  0  0
    0.0000    0.0000    0.0000 C   0  0  0  0  0  0  0  0  0  0  0  0
    0.8675    0.4975    0.0000 C   0  0  0  0  0  0  0  0  0  0  0  0
    0.8675    1.5027    0.0000 C   0  0  0  0  0  0  0  0  0  0  0  0
    1.7350    2.0001    0.0000 O   0  0  0  0  0  0  0  0  0  0  0  0
    1.7379    3.0001    0.0000 C   0  0  0  0  0  0  0  0  0  0  0  0
    2.6054    3.4976    0.0000 C   0  0  0  0  0  0  0  0  0  0  0  0
    2.1080    4.3651    0.0000 F   0  0  0  0  0  0  0  0  0  0  0  0
    3.1029    2.6301    0.0000 F   0  0  0  0  0  0  0  0  0  0  0  0
    3.4729    3.9950    0.0000 F   0  0  0  0  0  0  0  0  0  0  0  0
    0.0000    2.0104    0.0000 N   0  0  0  0  0  0  0  0  0  0  0  0
   -0.8675    1.5027    0.0000 C   0  0  0  0  0  0  0  0  0  0  0  0
  1  2  1  0
  2  3  1  0
  3  8  2  0
  3  4  1  0
  4  5  2  0
  5  6  1  0
  6  7  2  0
  7  8  1  0
  6  9  1  0
  9 16  1  0
  9 10  2  0
 10 11  1  0
 10 12  1  0
 12 13  2  0
 13 14  1  0
 14 15  1  0
 14 16  2  0
 16 17  1  0
 17 18  1  0
 18 19  1  0
 19 20  1  0
 20 21  2  0
 20 22  1  0
 22 33  1  0
 22 23  2  0
 23 24  1  0
 24 25  2  0
 25 26  1  0
 26 27  1  0
 27 28  1  0
 28 29  1  0
 28 30  1  0
 28 31  1  0
 25 32  1  0
 32 33  2  0
M  END
>  <SMILES>  (367) 
COc1ncc(-c2c(C)ccc(F)c2CCNC(=O)c2ccc(OCC(F)(F)F)nc2)cn1

>  <CollectionName>  (367) 
chembl

>  <LOG PLASMA PROTEIN BINDING (RAT) (% unbound)>  (367) 
0.64048143697

>  <Internal ID>  (367) 


>  <Source>  (367) 
AstraZeneca

$$$$
CHEMBL2151197
     RDKit          2D

 23 25  0  0  1  0  0  0  0  0999 V2000
    7.7948    1.7615    0.0000 C   0  0  0  0  0  0  0  0  0  0  0  0
    7.5302    2.7259    0.0000 C   0  0  0  0  0  0  0  0  0  0  0  0
    6.5628    2.9790    0.0000 N   0  0  0  0  0  0  0  0  0  0  0  0
    6.2982    3.9434    0.0000 C   0  0  0  0  0  0  0  0  0  0  0  0
    7.0011    4.6547    0.0000 O   0  0  0  0  0  0  0  0  0  0  0  0
    5.3308    4.1965    0.0000 C   0  0  0  0  0  0  0  0  0  0  0  0
    4.4677    3.6913    0.0000 C   0  0  0  0  0  0  0  0  0  0  0  0
    3.9626    4.5544    0.0000 C   0  0  0  0  0  0  0  0  0  0  0  0
    3.4575    5.4174    0.0000 F   0  0  0  0  0  0  0  0  0  0  0  0
    4.8257    5.0595    0.0000 C   0  0  0  0  0  0  0  0  0  0  0  0
    3.0996    4.0492    0.0000 C   0  0  0  0  0  0  0  0  0  0  0  0
    2.2276    4.5493    0.0000 C   0  0  0  0  0  0  0  0  0  0  0  0
    1.3645    4.0442    0.0000 C   0  0  0  0  0  0  0  0  0  0  0  0
    1.3645    3.0441    0.0000 C   0  0  0  0  0  0  0  0  0  0  0  0
    0.4993    2.5428    0.0000 C   0  0  0  0  0  0  0  0  0  0  0  0
    0.5008    1.5428    0.0000 N   0  0  0  0  0  0  0  0  0  0  0  0
   -0.3065    0.9519    0.0000 C   0  0  0  0  0  0  0  0  0  0  0  0
    0.0000    0.0000    0.0000 C   0  0  0  0  0  0  0  0  0  0  0  0
    1.0015    0.0000    0.0000 C   0  0  0  0  0  0  0  0  0  0  0  0
    1.3133    0.9519    0.0000 C   0  0  0  0  0  0  0  0  0  0  0  0
    2.2366    2.5441    0.0000 C   0  0  0  0  0  0  0  0  0  0  0  0
    2.2366    1.5441    0.0000 F   0  0  0  0  0  0  0  0  0  0  0  0
    3.1085    3.0441    0.0000 C   0  0  0  0  0  0  0  0  0  0  0  0
  1  2  1  0
  2  3  1  0
  3  4  1  0
  4  5  2  0
  6  4  1  6
  6 10  1  0
  6  7  1  0
  7  8  1  0
  8  9  1  1
  8 10  1  0
  8 11  1  0
 11 23  1  0
 11 12  2  0
 12 13  1  0
 13 14  2  0
 14 15  1  0
 15 16  1  0
 16 20  1  0
 16 17  1  0
 17 18  1  0
 18 19  1  0
 19 20  1  0
 14 21  1  0
 21 22  1  0
 21 23  2  0
M  END
>  <SMILES>  (368) 
CCNC(=O)[C@H]1C[C@@](F)(c2ccc(CN3CCCC3)c(F)c2)C1

>  <CollectionName>  (368) 
chembl

>  <LOG PLASMA PROTEIN BINDING (RAT) (% unbound)>  (368) 
1.88767355245

>  <Internal ID>  (368) 


>  <Source>  (368) 
AstraZeneca

$$$$
CHEMBL2151325
     RDKit          2D

 29 32  0  0  1  0  0  0  0  0999 V2000
    0.4285    6.5726    0.0000 C   0  0  0  0  0  0  0  0  0  0  0  0
   -0.1627    5.7661    0.0000 C   0  0  0  0  0  0  0  0  0  0  0  0
    0.2401    4.8509    0.0000 O   0  0  0  0  0  0  0  0  0  0  0  0
   -0.3511    4.0444    0.0000 C   0  0  0  0  0  0  0  0  0  0  0  0
   -0.0446    3.0909    0.0000 C   0  0  0  0  0  0  0  0  0  0  0  0
   -0.8570    2.5078    0.0000 C   0  0  0  0  0  0  0  0  0  0  0  0
   -0.8596    1.5078    0.0000 N   0  0  0  0  0  0  0  0  0  0  0  0
    0.0051    1.0055    0.0000 C   0  0  0  0  0  0  0  0  0  0  0  0
    0.8736    1.5067    0.0000 N   0  0  0  0  0  0  0  0  0  0  0  0
    1.7426    0.9968    0.0000 C   0  0  0  0  0  0  0  0  0  0  0  0
    1.7361   -0.0079    0.0000 C   0  0  0  0  0  0  0  0  0  0  0  0
    0.8635   -0.5043    0.0000 C   0  0  0  0  0  0  0  0  0  0  0  0
    0.0000    0.0000    0.0000 C   0  0  0  0  0  0  0  0  0  0  0  0
   -0.8685   -0.4956    0.0000 F   0  0  0  0  0  0  0  0  0  0  0  0
    2.6894   -0.3248    0.0000 N   0  0  0  0  0  0  0  0  0  0  0  0
    3.2854    0.4841    0.0000 C   0  0  0  0  0  0  0  0  0  0  0  0
    2.7001    1.3007    0.0000 N   0  0  0  0  0  0  0  0  0  0  0  0
    3.0154    2.2497    0.0000 C   0  0  0  0  0  0  0  0  0  0  0  0
    2.3512    2.9973    0.0000 C   0  0  0  0  0  0  0  0  0  0  0  0
    1.3717    2.7958    0.0000 O   0  0  0  0  0  0  0  0  0  0  0  0
    3.9949    2.4511    0.0000 C   0  0  0  0  0  0  0  0  0  0  0  0
    4.3091    3.4060    0.0000 C   0  0  0  0  0  0  0  0  0  0  0  0
    5.2886    3.6074    0.0000 C   0  0  0  0  0  0  0  0  0  0  0  0
    5.9572    2.8637    0.0000 C   0  0  0  0  0  0  0  0  0  0  0  0
    6.9358    3.0695    0.0000 F   0  0  0  0  0  0  0  0  0  0  0  0
    5.6430    1.9089    0.0000 C   0  0  0  0  0  0  0  0  0  0  0  0
    4.6603    1.6977    0.0000 N   0  0  0  0  0  0  0  0  0  0  0  0
   -1.6666    3.0955    0.0000 N   0  0  0  0  0  0  0  0  0  0  0  0
   -1.3528    4.0498    0.0000 N   0  0  0  0  0  0  0  0  0  0  0  0
  1  2  1  0
  2  3  1  0
  3  4  1  0
  4 29  1  0
  4  5  2  0
  5  6  1  0
  6  7  1  0
  7  8  1  0
  8 13  1  0
  8  9  2  0
  9 10  1  0
 10 17  1  0
 10 11  2  0
 11 12  1  0
 12 13  2  0
 13 14  1  0
 11 15  1  0
 15 16  2  0
 16 17  1  0
 17 18  1  0
 18 19  1  1
 19 20  1  0
 18 21  1  0
 21 27  1  0
 21 22  2  0
 22 23  1  0
 23 24  2  0
 24 25  1  0
 24 26  1  0
 26 27  2  0
  6 28  2  0
 28 29  1  0
M  END
>  <SMILES>  (369) 
CCOc1cc(Nc2nc3c(cc2F)ncn3[C@@H](CO)c2ccc(F)cn2)n[nH]1

>  <CollectionName>  (369) 
chembl

>  <LOG PLASMA PROTEIN BINDING (RAT) (% unbound)>  (369) 
1.22942584792

>  <Internal ID>  (369) 


>  <Source>  (369) 
AstraZeneca

$$$$
CHEMBL2158390
     RDKit          2D

 21 23  0  0  0  0  0  0  0  0999 V2000
   -0.8675    1.5026    0.0000 O   0  0  0  0  0  0  0  0  0  0  0  0
    0.0000    1.0052    0.0000 C   0  0  0  0  0  0  0  0  0  0  0  0
    0.8675    1.5129    0.0000 N   0  0  0  0  0  0  0  0  0  0  0  0
    1.7350    1.0052    0.0000 C   0  0  0  0  0  0  0  0  0  0  0  0
    1.7350    0.0000    0.0000 N   0  0  0  0  0  0  0  0  0  0  0  0
    0.8675   -0.4975    0.0000 C   0  0  0  0  0  0  0  0  0  0  0  0
    0.0000    0.0000    0.0000 C   0  0  0  0  0  0  0  0  0  0  0  0
    0.8675   -1.4975    0.0000 N   0  0  0  0  0  0  0  0  0  0  0  0
    1.7350   -1.9950    0.0000 C   0  0  0  0  0  0  0  0  0  0  0  0
    1.7350   -3.0002    0.0000 C   0  0  0  0  0  0  0  0  0  0  0  0
    0.8675   -3.5079    0.0000 O   0  0  0  0  0  0  0  0  0  0  0  0
    0.0000   -3.0002    0.0000 C   0  0  0  0  0  0  0  0  0  0  0  0
    0.0000   -1.9950    0.0000 C   0  0  0  0  0  0  0  0  0  0  0  0
    2.6025    1.5026    0.0000 N   0  0  0  0  0  0  0  0  0  0  0  0
    2.6054    2.5026    0.0000 C   0  0  0  0  0  0  0  0  0  0  0  0
    3.4729    3.0001    0.0000 C   0  0  0  0  0  0  0  0  0  0  0  0
    3.4729    4.0053    0.0000 C   0  0  0  0  0  0  0  0  0  0  0  0
    4.3404    4.5028    0.0000 C   0  0  0  0  0  0  0  0  0  0  0  0
    5.2079    4.0053    0.0000 C   0  0  0  0  0  0  0  0  0  0  0  0
    5.2079    3.0001    0.0000 C   0  0  0  0  0  0  0  0  0  0  0  0
    4.3404    2.4924    0.0000 C   0  0  0  0  0  0  0  0  0  0  0  0
  1  2  2  0
  2  7  1  0
  2  3  1  0
  3  4  1  0
  4  5  2  0
  5  6  1  0
  6  7  2  0
  6  8  1  0
  8 13  1  0
  8  9  1  0
  9 10  1  0
 10 11  1  0
 11 12  1  0
 12 13  1  0
  4 14  1  0
 14 15  1  0
 15 16  1  0
 16 21  1  0
 16 17  2  0
 17 18  1  0
 18 19  2  0
 19 20  1  0
 20 21  2  0
M  END
>  <SMILES>  (370) 
O=c1cc(N2CCOCC2)nc(NCc2ccccc2)[nH]1

>  <CollectionName>  (370) 
chembl

>  <LOG PLASMA PROTEIN BINDING (RAT) (% unbound)>  (370) 
1.27852496474

>  <Internal ID>  (370) 


>  <Source>  (370) 
AstraZeneca

$$$$
CHEMBL2158783
     RDKit          2D

 35 38  0  0  1  0  0  0  0  0999 V2000
    5.1992   -6.0154    0.0000 C   0  0  0  0  0  0  0  0  0  0  0  0
    4.3362   -5.5103    0.0000 C   0  0  0  0  0  0  0  0  0  0  0  0
    3.4642   -6.0103    0.0000 C   0  0  0  0  0  0  0  0  0  0  0  0
    3.4598   -7.0103    0.0000 Cl  0  0  0  0  0  0  0  0  0  0  0  0
    2.6011   -5.5053    0.0000 C   0  0  0  0  0  0  0  0  0  0  0  0
    2.6011   -4.5052    0.0000 C   0  0  0  0  0  0  0  0  0  0  0  0
    3.4731   -4.0052    0.0000 C   0  0  0  0  0  0  0  0  0  0  0  0
    3.4731   -3.0052    0.0000 O   0  0  0  0  0  0  0  0  0  0  0  0
    2.6071   -2.5052    0.0000 C   0  0  0  0  0  0  0  0  0  0  0  0
    1.7425   -3.0077    0.0000 C   0  0  0  0  0  0  0  0  0  0  0  0
    0.8720   -2.5051    0.0000 C   0  0  0  0  0  0  0  0  0  0  0  0
    0.8660   -1.5000    0.0000 N   0  0  0  0  0  0  0  0  0  0  0  0
    0.0000   -1.0000    0.0000 C   0  0  0  0  0  0  0  0  0  0  0  0
    0.0000    0.0000    0.0000 C   0  0  0  0  0  0  0  0  0  0  0  0
   -0.8675    0.4975    0.0000 C   0  0  0  0  0  0  0  0  0  0  0  0
   -0.8675    1.5027    0.0000 C   0  0  0  0  0  0  0  0  0  0  0  0
   -0.0000    2.0104    0.0000 N   0  0  0  0  0  0  0  0  0  0  0  0
    0.8675    1.5027    0.0000 C   0  0  0  0  0  0  0  0  0  0  0  0
    0.8675    0.4975    0.0000 C   0  0  0  0  0  0  0  0  0  0  0  0
   -0.0000    3.0104    0.0000 C   0  0  0  0  0  0  0  0  0  0  0  0
   -0.8660    3.5104    0.0000 C   0  0  0  0  0  0  0  0  0  0  0  0
   -0.8660    4.5104    0.0000 C   0  0  0  0  0  0  0  0  0  0  0  0
   -0.0007    5.0117    0.0000 C   0  0  0  0  0  0  0  0  0  0  0  0
    0.0037    6.0117    0.0000 C   0  0  0  0  0  0  0  0  0  0  0  0
   -0.8661    6.5156    0.0000 C   0  0  0  0  0  0  0  0  0  0  0  0
   -0.8617    7.5155    0.0000 F   0  0  0  0  0  0  0  0  0  0  0  0
   -1.7403    6.0194    0.0000 C   0  0  0  0  0  0  0  0  0  0  0  0
   -1.7358    5.0143    0.0000 C   0  0  0  0  0  0  0  0  0  0  0  0
    0.8660    3.5104    0.0000 C   0  0  0  0  0  0  0  0  0  0  0  0
    1.7321    3.0104    0.0000 O   0  0  0  0  0  0  0  0  0  0  0  0
    0.8660    4.5104    0.0000 O   0  0  0  0  0  0  0  0  0  0  0  0
    1.7395   -1.0026    0.0000 C   0  0  0  0  0  0  0  0  0  0  0  0
    2.6100   -1.5052    0.0000 C   0  0  0  0  0  0  0  0  0  0  0  0
    4.3451   -4.5052    0.0000 C   0  0  0  0  0  0  0  0  0  0  0  0
    5.2126   -4.0078    0.0000 Cl  0  0  0  0  0  0  0  0  0  0  0  0
  1  2  1  0
  2 34  2  0
  2  3  1  0
  3  4  1  0
  3  5  2  0
  5  6  1  0
  6  7  2  0
  7  8  1  0
  8  9  1  0
  9 33  1  0
  9 10  1  0
 10 11  1  0
 11 12  1  0
 12 13  1  0
 13 14  1  0
 14 19  1  0
 14 15  1  0
 15 16  1  0
 16 17  1  0
 17 18  1  0
 18 19  1  0
 17 20  1  0
 20 21  1  1
 21 22  1  0
 22 28  1  0
 22 23  2  0
 23 24  1  0
 24 25  2  0
 25 26  1  0
 25 27  1  0
 27 28  2  0
 20 29  1  0
 29 30  2  0
 29 31  1  0
 12 32  1  0
 32 33  1  0
  7 34  1  0
 34 35  1  0
M  END
>  <SMILES>  (371) 
Cc1c(Cl)ccc(OC2CCN(CC3CCN([C@@H](Cc4ccc(F)cc4)C(=O)O)CC3)CC2)c1Cl

>  <CollectionName>  (371) 
chembl

>  <LOG PLASMA PROTEIN BINDING (RAT) (% unbound)>  (371) 
1.36530074864

>  <Internal ID>  (371) 


>  <Source>  (371) 
AstraZeneca

$$$$
CHEMBL2158790
     RDKit          2D

 36 39  0  0  1  0  0  0  0  0999 V2000
    1.7380   -4.0078    0.0000 C   0  0  0  0  0  0  0  0  0  0  0  0
    2.6033   -4.5091    0.0000 C   0  0  0  0  0  0  0  0  0  0  0  0
    2.5988   -5.5142    0.0000 C   0  0  0  0  0  0  0  0  0  0  0  0
    1.7335   -6.0155    0.0000 Cl  0  0  0  0  0  0  0  0  0  0  0  0
    3.4730   -6.0104    0.0000 C   0  0  0  0  0  0  0  0  0  0  0  0
    3.4774   -7.0103    0.0000 Cl  0  0  0  0  0  0  0  0  0  0  0  0
    4.3428   -5.5065    0.0000 C   0  0  0  0  0  0  0  0  0  0  0  0
    4.3384   -4.5065    0.0000 C   0  0  0  0  0  0  0  0  0  0  0  0
    3.4731   -4.0052    0.0000 C   0  0  0  0  0  0  0  0  0  0  0  0
    3.4731   -3.0052    0.0000 O   0  0  0  0  0  0  0  0  0  0  0  0
    2.6071   -2.5052    0.0000 C   0  0  0  0  0  0  0  0  0  0  0  0
    1.7425   -3.0077    0.0000 C   0  0  0  0  0  0  0  0  0  0  0  0
    0.8720   -2.5051    0.0000 C   0  0  0  0  0  0  0  0  0  0  0  0
    0.8660   -1.5000    0.0000 N   0  0  0  0  0  0  0  0  0  0  0  0
    0.0000   -1.0000    0.0000 C   0  0  0  0  0  0  0  0  0  0  0  0
    0.0000    0.0000    0.0000 C   0  0  0  0  0  0  0  0  0  0  0  0
   -0.8675    0.4975    0.0000 C   0  0  0  0  0  0  0  0  0  0  0  0
   -0.8675    1.5027    0.0000 C   0  0  0  0  0  0  0  0  0  0  0  0
   -0.0000    2.0104    0.0000 N   0  0  0  0  0  0  0  0  0  0  0  0
    0.8675    1.5027    0.0000 C   0  0  0  0  0  0  0  0  0  0  0  0
    0.8675    0.4975    0.0000 C   0  0  0  0  0  0  0  0  0  0  0  0
   -0.0000    3.7604    0.0000 C   0  0  0  0  0  0  0  0  0  0  0  0
   -0.0000    4.7604    0.0000 C   0  0  0  0  0  0  0  0  0  0  0  0
    1.0000    3.7604    0.0000 C   0  0  0  0  0  0  0  0  0  0  0  0
    1.5000    4.6264    0.0000 C   0  0  0  0  0  0  0  0  0  0  0  0
    1.0012    5.4932    0.0000 C   0  0  0  0  0  0  0  0  0  0  0  0
    1.4975    6.3614    0.0000 C   0  0  0  0  0  0  0  0  0  0  0  0
    2.5027    6.3629    0.0000 C   0  0  0  0  0  0  0  0  0  0  0  0
    2.9989    7.2311    0.0000 F   0  0  0  0  0  0  0  0  0  0  0  0
    3.0116    5.4961    0.0000 C   0  0  0  0  0  0  0  0  0  0  0  0
    2.5052    4.6279    0.0000 C   0  0  0  0  0  0  0  0  0  0  0  0
   -1.0000    3.7604    0.0000 C   0  0  0  0  0  0  0  0  0  0  0  0
   -1.5000    4.6264    0.0000 O   0  0  0  0  0  0  0  0  0  0  0  0
   -1.5000    2.8944    0.0000 O   0  0  0  0  0  0  0  0  0  0  0  0
    1.7395   -1.0026    0.0000 C   0  0  0  0  0  0  0  0  0  0  0  0
    2.6100   -1.5052    0.0000 C   0  0  0  0  0  0  0  0  0  0  0  0
  1  2  1  0
  2  9  2  0
  2  3  1  0
  3  4  1  0
  3  5  2  0
  5  6  1  0
  5  7  1  0
  7  8  2  0
  8  9  1  0
  9 10  1  0
 10 11  1  0
 11 36  1  0
 11 12  1  0
 12 13  1  0
 13 14  1  0
 14 15  1  0
 15 16  1  0
 16 21  1  0
 16 17  1  0
 17 18  1  0
 18 19  1  0
 19 20  1  0
 20 21  1  0
 19 22  1  0
 22 23  1  1
 22 24  1  0
 24 25  1  0
 25 31  1  0
 25 26  2  0
 26 27  1  0
 27 28  2  0
 28 29  1  0
 28 30  1  0
 30 31  2  0
 22 32  1  0
 32 33  2  0
 32 34  1  0
 14 35  1  0
 35 36  1  0
M  END
>  <SMILES>  (372) 
Cc1c(OC2CCN(CC3CCN([C@@](C)(Cc4ccc(F)cc4)C(=O)O)CC3)CC2)ccc(Cl)c1Cl

>  <CollectionName>  (372) 
chembl

>  <LOG PLASMA PROTEIN BINDING (RAT) (% unbound)>  (372) 
0.876217840592

>  <Internal ID>  (372) 


>  <Source>  (372) 
AstraZeneca

$$$$
CHEMBL2164740
     RDKit          2D

 34 38  0  0  1  0  0  0  0  0999 V2000
    1.7589    6.0292    0.0000 O   0  0  0  0  0  0  0  0  0  0  0  0
    2.6227    5.5254    0.0000 C   0  0  0  0  0  0  0  0  0  0  0  0
    2.6198    4.5202    0.0000 C   0  0  0  0  0  0  0  0  0  0  0  0
    3.4858    4.0100    0.0000 N   0  0  0  0  0  0  0  0  0  0  0  0
    3.4829    3.0100    0.0000 C   0  0  0  0  0  0  0  0  0  0  0  0
    2.6154    2.5125    0.0000 C   0  0  0  0  0  0  0  0  0  0  0  0
    2.6125    1.5125    0.0000 N   0  0  0  0  0  0  0  0  0  0  0  0
    3.4848    1.0014    0.0000 C   0  0  0  0  0  0  0  0  0  0  0  0
    4.3535    1.4968    0.0000 O   0  0  0  0  0  0  0  0  0  0  0  0
    3.4805   -0.0073    0.0000 C   0  0  0  0  0  0  0  0  0  0  0  0
    2.6039   -0.5053    0.0000 C   0  0  0  0  0  0  0  0  0  0  0  0
    1.7371   -0.0000    0.0000 C   0  0  0  0  0  0  0  0  0  0  0  0
    0.8707   -0.4993    0.0000 C   0  0  0  0  0  0  0  0  0  0  0  0
    0.0000    0.0000    0.0000 C   0  0  0  0  0  0  0  0  0  0  0  0
    0.0000    1.0089    0.0000 C   0  0  0  0  0  0  0  0  0  0  0  0
    0.8707    1.5185    0.0000 C   0  0  0  0  0  0  0  0  0  0  0  0
    1.7414    1.0089    0.0000 C   0  0  0  0  0  0  0  0  0  0  0  0
   -0.8675    1.5063    0.0000 C   0  0  0  0  0  0  0  0  0  0  0  0
   -1.7350    2.0038    0.0000 N   0  0  0  0  0  0  0  0  0  0  0  0
    4.3548    4.5151    0.0000 C   0  0  0  0  0  0  0  0  0  0  0  0
    4.3577    5.5203    0.0000 C   0  0  0  0  0  0  0  0  0  0  0  0
    3.4917    6.0204    0.0000 C   0  0  0  0  0  0  0  0  0  0  0  0
    3.4946    7.0204    0.0000 N   0  0  0  0  0  0  0  0  0  0  0  0
    2.6300    7.5229    0.0000 C   0  0  0  0  0  0  0  0  0  0  0  0
    2.6329    8.5229    0.0000 C   0  0  0  0  0  0  0  0  0  0  0  0
    1.7621    9.0257    0.0000 C   0  0  0  0  0  0  0  0  0  0  0  0
    1.7738   10.0311    0.0000 C   0  0  0  0  0  0  0  0  0  0  0  0
    0.9052   10.5323    0.0000 O   0  0  0  0  0  0  0  0  0  0  0  0
    0.9118   11.5400    0.0000 C   0  0  0  0  0  0  0  0  0  0  0  0
    1.7850   12.0389    0.0000 C   0  0  0  0  0  0  0  0  0  0  0  0
    2.6515   11.5301    0.0000 O   0  0  0  0  0  0  0  0  0  0  0  0
    2.6470   10.5300    0.0000 C   0  0  0  0  0  0  0  0  0  0  0  0
    3.5098   10.0212    0.0000 C   0  0  0  0  0  0  0  0  0  0  0  0
    3.5068    9.0207    0.0000 N   0  0  0  0  0  0  0  0  0  0  0  0
  2  1  1  1
  2 22  1  0
  2  3  1  0
  3  4  1  0
  4  5  1  0
  5  6  1  0
  6  7  1  0
  7 17  1  0
  7  8  1  0
  8  9  2  0
  8 10  1  0
 10 11  2  0
 11 12  1  0
 12 17  2  0
 12 13  1  0
 13 14  2  0
 14 15  1  0
 15 16  2  0
 16 17  1  0
 15 18  1  0
 18 19  3  0
  4 20  1  0
 20 21  1  0
 21 22  1  0
 22 23  1  1
 23 24  1  0
 24 25  1  0
 25 34  1  0
 25 26  2  0
 26 27  1  0
 27 32  2  0
 27 28  1  0
 28 29  1  0
 29 30  1  0
 30 31  1  0
 31 32  1  0
 32 33  1  0
 33 34  2  0
M  END
>  <SMILES>  (373) 
N#Cc1ccc2ccc(=O)n(CCN3CC[C@H](NCc4cc5c(cn4)OCCO5)[C@H](O)C3)c2c1

>  <CollectionName>  (373) 
chembl

>  <LOG PLASMA PROTEIN BINDING (RAT) (% unbound)>  (373) 
1.86545932266

>  <Internal ID>  (373) 


>  <Source>  (373) 
AstraZeneca

$$$$
CHEMBL2165180
     RDKit          2D

 28 31  0  0  1  0  0  0  0  0999 V2000
   -3.4641    0.9950    0.0000 O   0  0  0  0  0  0  0  0  0  0  0  0
   -2.5995    1.4975    0.0000 C   0  0  0  0  0  0  0  0  0  0  0  0
   -1.7320    1.0001    0.0000 C   0  0  0  0  0  0  0  0  0  0  0  0
   -0.8675    1.5026    0.0000 N   0  0  0  0  0  0  0  0  0  0  0  0
   -0.8704    2.5026    0.0000 C   0  0  0  0  0  0  0  0  0  0  0  0
   -0.0059    3.0052    0.0000 C   0  0  0  0  0  0  0  0  0  0  0  0
    0.8700    2.5069    0.0000 C   0  0  0  0  0  0  0  0  0  0  0  0
    1.7388    3.0135    0.0000 C   0  0  0  0  0  0  0  0  0  0  0  0
    1.7316    4.0184    0.0000 C   0  0  0  0  0  0  0  0  0  0  0  0
    0.8634    4.5146    0.0000 C   0  0  0  0  0  0  0  0  0  0  0  0
    0.8542    5.5162    0.0000 C   0  0  0  0  0  0  0  0  0  0  0  0
   -0.0136    6.0141    0.0000 C   0  0  0  0  0  0  0  0  0  0  0  0
   -0.8818    5.5064    0.0000 C   0  0  0  0  0  0  0  0  0  0  0  0
   -0.8819    4.5008    0.0000 C   0  0  0  0  0  0  0  0  0  0  0  0
   -0.0054    4.0080    0.0000 C   0  0  0  0  0  0  0  0  0  0  0  0
    0.0000    1.0052    0.0000 C   0  0  0  0  0  0  0  0  0  0  0  0
    0.0000    0.0000    0.0000 C   0  0  0  0  0  0  0  0  0  0  0  0
    0.8675   -0.4975    0.0000 C   0  0  0  0  0  0  0  0  0  0  0  0
    1.7350    0.0000    0.0000 N   0  0  0  0  0  0  0  0  0  0  0  0
    1.7350    1.0052    0.0000 C   0  0  0  0  0  0  0  0  0  0  0  0
    2.6025    1.5026    0.0000 O   0  0  0  0  0  0  0  0  0  0  0  0
    0.8675    1.5129    0.0000 N   0  0  0  0  0  0  0  0  0  0  0  0
    0.8675   -1.4975    0.0000 N   0  0  0  0  0  0  0  0  0  0  0  0
    1.7350   -1.9950    0.0000 C   0  0  0  0  0  0  0  0  0  0  0  0
    1.7350   -3.0002    0.0000 C   0  0  0  0  0  0  0  0  0  0  0  0
    0.8675   -3.5079    0.0000 O   0  0  0  0  0  0  0  0  0  0  0  0
    0.0000   -3.0002    0.0000 C   0  0  0  0  0  0  0  0  0  0  0  0
    0.0000   -1.9950    0.0000 C   0  0  0  0  0  0  0  0  0  0  0  0
  1  2  1  0
  2  3  1  0
  3  4  1  0
  4  5  1  0
  5  6  1  0
  6 15  1  0
  6  7  2  0
  7  8  1  0
  8  9  2  0
  9 10  1  0
 10 15  2  0
 10 11  1  0
 11 12  2  0
 12 13  1  0
 13 14  2  0
 14 15  1  0
  4 16  1  0
 16 22  1  0
 16 17  2  0
 17 18  1  0
 18 19  2  0
 19 20  1  0
 20 21  2  0
 20 22  1  0
 18 23  1  0
 23 28  1  0
 23 24  1  0
 24 25  1  0
 25 26  1  0
 26 27  1  0
 27 28  1  0
M  END
>  <SMILES>  (374) 
O=c1nc(N2CCOCC2)cc(N(CCO)Cc2cccc3ccccc23)[nH]1

>  <CollectionName>  (374) 
chembl

>  <LOG PLASMA PROTEIN BINDING (RAT) (% unbound)>  (374) 
1.17897694729

>  <Internal ID>  (374) 


>  <Source>  (374) 
AstraZeneca

$$$$
CHEMBL2178952
     RDKit          2D

 25 27  0  0  1  0  0  0  0  0999 V2000
    2.6054    2.5026    0.0000 N   0  0  0  0  0  0  0  0  0  0  0  0
    2.6025    1.5026    0.0000 C   0  0  0  0  0  0  0  0  0  0  0  0
    3.4670    1.0001    0.0000 O   0  0  0  0  0  0  0  0  0  0  0  0
    1.7350    1.0052    0.0000 C   0  0  0  0  0  0  0  0  0  0  0  0
    1.7350    0.0000    0.0000 C   0  0  0  0  0  0  0  0  0  0  0  0
    0.8675   -0.4975    0.0000 N   0  0  0  0  0  0  0  0  0  0  0  0
    0.0000    0.0000    0.0000 C   0  0  0  0  0  0  0  0  0  0  0  0
    0.0000    1.0052    0.0000 C   0  0  0  0  0  0  0  0  0  0  0  0
    0.8675    1.5129    0.0000 N   0  0  0  0  0  0  0  0  0  0  0  0
   -0.8675    1.5026    0.0000 C   0  0  0  0  0  0  0  0  0  0  0  0
   -0.8719    2.5027    0.0000 C   0  0  0  0  0  0  0  0  0  0  0  0
   -1.7372    3.0039    0.0000 C   0  0  0  0  0  0  0  0  0  0  0  0
   -2.6070    2.5000    0.0000 C   0  0  0  0  0  0  0  0  0  0  0  0
   -2.6114    1.4949    0.0000 C   0  0  0  0  0  0  0  0  0  0  0  0
   -1.7373    0.9987    0.0000 C   0  0  0  0  0  0  0  0  0  0  0  0
   -3.4723    3.0012    0.0000 C   0  0  0  0  0  0  0  0  0  0  0  0
   -4.3421    2.4973    0.0000 C   0  0  0  0  0  0  0  0  0  0  0  0
   -5.2074    2.9986    0.0000 C   0  0  0  0  0  0  0  0  0  0  0  0
   -5.2118    3.9986    0.0000 C   0  0  0  0  0  0  0  0  0  0  0  0
   -6.0793    4.4960    0.0000 C   0  0  0  0  0  0  0  0  0  0  0  0
   -6.9439    3.9935    0.0000 C   0  0  0  0  0  0  0  0  0  0  0  0
   -6.9409    2.9935    0.0000 O   0  0  0  0  0  0  0  0  0  0  0  0
   -7.8114    4.4909    0.0000 O   0  0  0  0  0  0  0  0  0  0  0  0
   -4.3421    4.5025    0.0000 C   0  0  0  0  0  0  0  0  0  0  0  0
   -3.4679    4.0064    0.0000 C   0  0  0  0  0  0  0  0  0  0  0  0
  1  2  1  0
  2  3  2  0
  2  4  1  0
  4  9  2  0
  4  5  1  0
  5  6  2  0
  6  7  1  0
  7  8  2  0
  8  9  1  0
  8 10  1  0
 10 15  1  0
 10 11  2  0
 11 12  1  0
 12 13  2  0
 13 14  1  0
 14 15  2  0
 16 13  1  6
 16 25  1  0
 16 17  1  0
 17 18  1  0
 18 19  1  0
 19 20  1  1
 20 21  1  0
 21 22  2  0
 21 23  1  0
 19 24  1  0
 24 25  1  0
M  END
>  <SMILES>  (375) 
NC(=O)c1cncc(-c2ccc([C@H]3CC[C@H](CC(=O)O)CC3)cc2)n1

>  <CollectionName>  (375) 
chembl

>  <LOG PLASMA PROTEIN BINDING (RAT) (% unbound)>  (375) 
-0.200659450546

>  <Internal ID>  (375) 


>  <Source>  (375) 
AstraZeneca

$$$$
CHEMBL2179275
     RDKit          2D

 37 40  0  0  1  0  0  0  0  0999 V2000
    3.4695    7.0244    0.0000 C   0  0  0  0  0  0  0  0  0  0  0  0
    3.4709    6.0244    0.0000 C   0  0  0  0  0  0  0  0  0  0  0  0
    4.3377    5.5257    0.0000 C   0  0  0  0  0  0  0  0  0  0  0  0
    2.6056    5.5232    0.0000 C   0  0  0  0  0  0  0  0  0  0  0  0
    2.6071    4.5232    0.0000 C   0  0  0  0  0  0  0  0  0  0  0  0
    1.7418    4.0219    0.0000 N   0  0  0  0  0  0  0  0  0  0  0  0
    0.8676    4.5181    0.0000 C   0  0  0  0  0  0  0  0  0  0  0  0
   -0.0022    4.0142    0.0000 C   0  0  0  0  0  0  0  0  0  0  0  0
    0.0022    3.0142    0.0000 C   0  0  0  0  0  0  0  0  0  0  0  0
    0.8675    2.5129    0.0000 C   0  0  0  0  0  0  0  0  0  0  0  0
    1.7373    3.0168    0.0000 C   0  0  0  0  0  0  0  0  0  0  0  0
    0.8675    1.5129    0.0000 N   0  0  0  0  0  0  0  0  0  0  0  0
    0.0000    1.0052    0.0000 C   0  0  0  0  0  0  0  0  0  0  0  0
    0.0000    0.0000    0.0000 C   0  0  0  0  0  0  0  0  0  0  0  0
   -0.8653   -0.5013    0.0000 C   0  0  0  0  0  0  0  0  0  0  0  0
    0.8675   -0.4975    0.0000 C   0  0  0  0  0  0  0  0  0  0  0  0
    0.8675   -1.4975    0.0000 O   0  0  0  0  0  0  0  0  0  0  0  0
    1.7350    0.0000    0.0000 N   0  0  0  0  0  0  0  0  0  0  0  0
    1.7350    1.0052    0.0000 C   0  0  0  0  0  0  0  0  0  0  0  0
    2.6025    1.5026    0.0000 O   0  0  0  0  0  0  0  0  0  0  0  0
    3.4738    4.0244    0.0000 C   0  0  0  0  0  0  0  0  0  0  0  0
    3.4723    3.0192    0.0000 C   0  0  0  0  0  0  0  0  0  0  0  0
    4.3391    2.5204    0.0000 C   0  0  0  0  0  0  0  0  0  0  0  0
    5.2073    3.0166    0.0000 C   0  0  0  0  0  0  0  0  0  0  0  0
    6.0719    2.5141    0.0000 C   0  0  0  0  0  0  0  0  0  0  0  0
    6.0689    1.5141    0.0000 O   0  0  0  0  0  0  0  0  0  0  0  0
    6.9394    3.0115    0.0000 O   0  0  0  0  0  0  0  0  0  0  0  0
    5.2088    4.0218    0.0000 C   0  0  0  0  0  0  0  0  0  0  0  0
    6.0771    4.5180    0.0000 O   0  0  0  0  0  0  0  0  0  0  0  0
    6.0815    5.5179    0.0000 C   0  0  0  0  0  0  0  0  0  0  0  0
    5.2117    6.0218    0.0000 C   0  0  0  0  0  0  0  0  0  0  0  0
    5.2161    7.0219    0.0000 C   0  0  0  0  0  0  0  0  0  0  0  0
    6.0815    7.5231    0.0000 C   0  0  0  0  0  0  0  0  0  0  0  0
    6.9513    7.0192    0.0000 C   0  0  0  0  0  0  0  0  0  0  0  0
    7.8166    7.5204    0.0000 Cl  0  0  0  0  0  0  0  0  0  0  0  0
    6.9557    6.0141    0.0000 C   0  0  0  0  0  0  0  0  0  0  0  0
    4.3421    4.5308    0.0000 C   0  0  0  0  0  0  0  0  0  0  0  0
  1  2  1  0
  2  3  1  0
  2  4  1  0
  5  4  1  6
  5  6  1  0
  6 11  1  0
  6  7  1  0
  7  8  1  0
  8  9  1  0
  9 10  1  0
 10 11  1  0
 10 12  1  1
 12 19  1  0
 12 13  1  0
 13 14  2  0
 14 15  1  0
 14 16  1  0
 16 17  2  0
 16 18  1  0
 18 19  1  0
 19 20  2  0
  5 21  1  0
 21 37  1  0
 21 22  2  0
 22 23  1  0
 23 24  2  0
 24 25  1  0
 25 26  2  0
 25 27  1  0
 24 28  1  0
 28 29  1  0
 29 30  1  0
 30 36  1  0
 30 31  2  0
 31 32  1  0
 32 33  2  0
 33 34  1  0
 34 35  1  0
 34 36  2  0
 28 37  2  0
M  END
>  <SMILES>  (376) 
Cc1cn([C@H]2CCCN([C@H](CC(C)C)c3ccc(C(=O)O)c(Oc4cccc(Cl)c4)c3)C2)c(=O)[nH]c1=O

>  <CollectionName>  (376) 
chembl

>  <LOG PLASMA PROTEIN BINDING (RAT) (% unbound)>  (376) 
0.243038048686

>  <Internal ID>  (376) 


>  <Source>  (376) 
AstraZeneca

$$$$
CHEMBL2179277
     RDKit          2D

 38 41  0  0  1  0  0  0  0  0999 V2000
   -0.8653   -0.5013    0.0000 C   0  0  0  0  0  0  0  0  0  0  0  0
    0.0000    0.0000    0.0000 C   0  0  0  0  0  0  0  0  0  0  0  0
    0.0000    1.0052    0.0000 C   0  0  0  0  0  0  0  0  0  0  0  0
    0.8675    1.5129    0.0000 N   0  0  0  0  0  0  0  0  0  0  0  0
    0.8675    2.5129    0.0000 C   0  0  0  0  0  0  0  0  0  0  0  0
    0.0022    3.0142    0.0000 C   0  0  0  0  0  0  0  0  0  0  0  0
   -0.0022    4.0142    0.0000 C   0  0  0  0  0  0  0  0  0  0  0  0
    0.8676    4.5181    0.0000 C   0  0  0  0  0  0  0  0  0  0  0  0
    1.7418    4.0219    0.0000 N   0  0  0  0  0  0  0  0  0  0  0  0
    1.7373    3.0168    0.0000 C   0  0  0  0  0  0  0  0  0  0  0  0
    3.2560    4.8991    0.0000 C   0  0  0  0  0  0  0  0  0  0  0  0
    3.2546    5.8991    0.0000 C   0  0  0  0  0  0  0  0  0  0  0  0
    2.3878    6.3978    0.0000 C   0  0  0  0  0  0  0  0  0  0  0  0
    1.5211    6.8966    0.0000 C   0  0  0  0  0  0  0  0  0  0  0  0
    2.8866    7.2646    0.0000 C   0  0  0  0  0  0  0  0  0  0  0  0
    1.8891    5.5311    0.0000 C   0  0  0  0  0  0  0  0  0  0  0  0
    4.1228    4.4004    0.0000 C   0  0  0  0  0  0  0  0  0  0  0  0
    4.1213    3.3952    0.0000 C   0  0  0  0  0  0  0  0  0  0  0  0
    4.9880    2.8964    0.0000 C   0  0  0  0  0  0  0  0  0  0  0  0
    5.8563    3.3926    0.0000 C   0  0  0  0  0  0  0  0  0  0  0  0
    6.7208    2.8900    0.0000 C   0  0  0  0  0  0  0  0  0  0  0  0
    6.7179    1.8900    0.0000 O   0  0  0  0  0  0  0  0  0  0  0  0
    7.5883    3.3874    0.0000 O   0  0  0  0  0  0  0  0  0  0  0  0
    5.8578    4.3978    0.0000 C   0  0  0  0  0  0  0  0  0  0  0  0
    6.7260    4.8939    0.0000 O   0  0  0  0  0  0  0  0  0  0  0  0
    6.7305    5.8939    0.0000 C   0  0  0  0  0  0  0  0  0  0  0  0
    5.8607    6.3978    0.0000 C   0  0  0  0  0  0  0  0  0  0  0  0
    5.8651    7.3978    0.0000 C   0  0  0  0  0  0  0  0  0  0  0  0
    6.7305    7.8990    0.0000 C   0  0  0  0  0  0  0  0  0  0  0  0
    7.6002    7.3951    0.0000 C   0  0  0  0  0  0  0  0  0  0  0  0
    8.4655    7.8964    0.0000 Br  0  0  0  0  0  0  0  0  0  0  0  0
    7.6047    6.3900    0.0000 C   0  0  0  0  0  0  0  0  0  0  0  0
    4.9911    4.9068    0.0000 C   0  0  0  0  0  0  0  0  0  0  0  0
    1.7350    1.0052    0.0000 C   0  0  0  0  0  0  0  0  0  0  0  0
    2.6025    1.5026    0.0000 O   0  0  0  0  0  0  0  0  0  0  0  0
    1.7350    0.0000    0.0000 N   0  0  0  0  0  0  0  0  0  0  0  0
    0.8675   -0.4975    0.0000 C   0  0  0  0  0  0  0  0  0  0  0  0
    0.8675   -1.4975    0.0000 O   0  0  0  0  0  0  0  0  0  0  0  0
  1  2  1  0
  2 37  1  0
  2  3  2  0
  3  4  1  0
  5  4  1  1
  5 10  1  0
  5  6  1  0
  6  7  1  0
  7  8  1  0
  8  9  1  0
  9 10  1  0
  9 11  1  0
 11 12  1  6
 12 13  1  0
 13 14  1  0
 13 15  1  0
 13 16  1  0
 11 17  1  0
 17 33  1  0
 17 18  2  0
 18 19  1  0
 19 20  2  0
 20 21  1  0
 21 22  2  0
 21 23  1  0
 20 24  1  0
 24 25  1  0
 25 26  1  0
 26 32  1  0
 26 27  2  0
 27 28  1  0
 28 29  2  0
 29 30  1  0
 30 31  1  0
 30 32  2  0
 24 33  2  0
  4 34  1  0
 34 35  2  0
 34 36  1  0
 36 37  1  0
 37 38  2  0
M  END
>  <SMILES>  (377) 
Cc1cn([C@H]2CCCN([C@H](CC(C)(C)C)c3ccc(C(=O)O)c(Oc4cccc(Br)c4)c3)C2)c(=O)[nH]c1=O

>  <CollectionName>  (377) 
chembl

>  <LOG PLASMA PROTEIN BINDING (RAT) (% unbound)>  (377) 
0.173186268412

>  <Internal ID>  (377) 


>  <Source>  (377) 
AstraZeneca

$$$$
CHEMBL2181247
     RDKit          2D

 34 37  0  0  0  0  0  0  0  0999 V2000
    4.8261    2.0060    0.0000 F   0  0  0  0  0  0  0  0  0  0  0  0
    3.9616    2.5086    0.0000 C   0  0  0  0  0  0  0  0  0  0  0  0
    3.9675    3.5137    0.0000 C   0  0  0  0  0  0  0  0  0  0  0  0
    3.0941    4.0112    0.0000 C   0  0  0  0  0  0  0  0  0  0  0  0
    2.2236    3.5086    0.0000 C   0  0  0  0  0  0  0  0  0  0  0  0
    2.2264    2.5086    0.0000 C   0  0  0  0  0  0  0  0  0  0  0  0
    3.0910    2.0060    0.0000 C   0  0  0  0  0  0  0  0  0  0  0  0
    3.0895    1.0060    0.0000 C   0  0  0  0  0  0  0  0  0  0  0  0
    3.9596    0.4979    0.0000 C   0  0  0  0  0  0  0  0  0  0  0  0
    3.9567   -0.5076    0.0000 C   0  0  0  0  0  0  0  0  0  0  0  0
    3.0837   -1.0052    0.0000 N   0  0  0  0  0  0  0  0  0  0  0  0
    2.2192   -0.5026    0.0000 C   0  0  0  0  0  0  0  0  0  0  0  0
    1.4241   -1.1362    0.0000 O   0  0  0  0  0  0  0  0  0  0  0  0
    0.4360   -0.9143    0.0000 C   0  0  0  0  0  0  0  0  0  0  0  0
    0.0000    0.0000    0.0000 C   0  0  0  0  0  0  0  0  0  0  0  0
   -1.0000    0.0007    0.0000 O   0  0  0  0  0  0  0  0  0  0  0  0
    0.4384    0.9159    0.0000 N   0  0  0  0  0  0  0  0  0  0  0  0
   -0.1859    1.6971    0.0000 C   0  0  0  0  0  0  0  0  0  0  0  0
   -1.9161    1.4343    0.0000 C   0  0  0  0  0  0  0  0  0  0  0  0
   -2.5382    2.2173    0.0000 C   0  0  0  0  0  0  0  0  0  0  0  0
   -3.5320    2.0664    0.0000 C   0  0  0  0  0  0  0  0  0  0  0  0
   -3.9037    1.1325    0.0000 C   0  0  0  0  0  0  0  0  0  0  0  0
   -3.2716    0.3511    0.0000 C   0  0  0  0  0  0  0  0  0  0  0  0
   -2.2777    0.5020    0.0000 C   0  0  0  0  0  0  0  0  0  0  0  0
   -3.6331   -0.5813    0.0000 C   0  0  0  0  0  0  0  0  0  0  0  0
   -4.5655   -0.2197    0.0000 F   0  0  0  0  0  0  0  0  0  0  0  0
   -2.7008   -0.9428    0.0000 F   0  0  0  0  0  0  0  0  0  0  0  0
   -3.9947   -1.5136    0.0000 F   0  0  0  0  0  0  0  0  0  0  0  0
   -4.1540    2.8494    0.0000 C   0  0  0  0  0  0  0  0  0  0  0  0
   -3.3711    3.4714    0.0000 F   0  0  0  0  0  0  0  0  0  0  0  0
   -4.9370    2.2274    0.0000 F   0  0  0  0  0  0  0  0  0  0  0  0
   -4.7761    3.6324    0.0000 F   0  0  0  0  0  0  0  0  0  0  0  0
    1.4290    1.1418    0.0000 C   0  0  0  0  0  0  0  0  0  0  0  0
    2.2220    0.5029    0.0000 C   0  0  0  0  0  0  0  0  0  0  0  0
  1  2  1  0
  2  7  2  0
  2  3  1  0
  3  4  2  0
  4  5  1  0
  5  6  2  0
  6  7  1  0
  7  8  1  0
  8 34  1  0
  8  9  2  0
  9 10  1  0
 10 11  2  0
 11 12  1  0
 12 34  2  0
 12 13  1  0
 13 14  1  0
 14 15  1  0
 15 16  2  0
 15 17  1  0
 17 18  1  0
 18 19  1  0
 19 24  1  0
 19 20  2  0
 20 21  1  0
 21 22  2  0
 22 23  1  0
 23 24  2  0
 23 25  1  0
 25 26  1  0
 25 27  1  0
 25 28  1  0
 21 29  1  0
 29 30  1  0
 29 31  1  0
 29 32  1  0
 17 33  1  0
 33 34  1  0
M  END
>  <SMILES>  (378) 
O=C1COc2nccc(-c3ccccc3F)c2CN1Cc1cc(C(F)(F)F)cc(C(F)(F)F)c1

>  <CollectionName>  (378) 
chembl

>  <LOG PLASMA PROTEIN BINDING (RAT) (% unbound)>  (378) 
-0.0915149811214

>  <Internal ID>  (378) 


>  <Source>  (378) 
AstraZeneca

$$$$
CHEMBL384903
     RDKit          2D

 25 27  0  0  0  0  0  0  0  0999 V2000
    1.3502    1.7977    0.0000 O   0  0  0  0  0  0  0  0  0  0  0  0
    2.3281    2.0071    0.0000 C   0  0  0  0  0  0  0  0  0  0  0  0
    2.6371    2.9582    0.0000 C   0  0  0  0  0  0  0  0  0  0  0  0
    3.6140    3.1718    0.0000 C   0  0  0  0  0  0  0  0  0  0  0  0
    4.2888    2.4267    0.0000 C   0  0  0  0  0  0  0  0  0  0  0  0
    3.9866    1.4681    0.0000 C   0  0  0  0  0  0  0  0  0  0  0  0
    3.0029    1.2620    0.0000 C   0  0  0  0  0  0  0  0  0  0  0  0
    2.6938    0.3110    0.0000 N   0  0  0  0  0  0  0  0  0  0  0  0
    3.2858   -0.5036    0.0000 C   0  0  0  0  0  0  0  0  0  0  0  0
    4.2858   -0.5035    0.0000 O   0  0  0  0  0  0  0  0  0  0  0  0
    2.6938   -1.3184    0.0000 N   0  0  0  0  0  0  0  0  0  0  0  0
    1.7360   -1.0071    0.0000 C   0  0  0  0  0  0  0  0  0  0  0  0
    0.8680   -1.5037    0.0000 C   0  0  0  0  0  0  0  0  0  0  0  0
   -0.0000   -1.0058    0.0000 C   0  0  0  0  0  0  0  0  0  0  0  0
    0.0000    0.0000    0.0000 C   0  0  0  0  0  0  0  0  0  0  0  0
    0.8680    0.5079    0.0000 C   0  0  0  0  0  0  0  0  0  0  0  0
    1.7360    0.0000    0.0000 C   0  0  0  0  0  0  0  0  0  0  0  0
   -0.8653   -1.5070    0.0000 C   0  0  0  0  0  0  0  0  0  0  0  0
   -0.3641   -2.3723    0.0000 F   0  0  0  0  0  0  0  0  0  0  0  0
   -1.3665   -0.6417    0.0000 F   0  0  0  0  0  0  0  0  0  0  0  0
   -1.7306   -2.0082    0.0000 F   0  0  0  0  0  0  0  0  0  0  0  0
    5.2657    2.6404    0.0000 C   0  0  0  0  0  0  0  0  0  0  0  0
    5.0521    3.6173    0.0000 F   0  0  0  0  0  0  0  0  0  0  0  0
    5.4794    1.6635    0.0000 F   0  0  0  0  0  0  0  0  0  0  0  0
    6.2426    2.8540    0.0000 F   0  0  0  0  0  0  0  0  0  0  0  0
  1  2  1  0
  2  7  2  0
  2  3  1  0
  3  4  2  0
  4  5  1  0
  5  6  2  0
  6  7  1  0
  7  8  1  0
  8 17  1  0
  8  9  1  0
  9 10  2  0
  9 11  1  0
 11 12  1  0
 12 17  2  0
 12 13  1  0
 13 14  2  0
 14 15  1  0
 15 16  2  0
 16 17  1  0
 14 18  1  0
 18 19  1  0
 18 20  1  0
 18 21  1  0
  5 22  1  0
 22 23  1  0
 22 24  1  0
 22 25  1  0
M  END
>  <SMILES>  (379) 
O=c1[nH]c2cc(C(F)(F)F)ccc2n1-c1cc(C(F)(F)F)ccc1O

>  <CollectionName>  (379) 
chembl

>  <LOG PLASMA PROTEIN BINDING (RAT) (% unbound)>  (379) 
-0.958607314842

>  <Internal ID>  (379) 


>  <Source>  (379) 
AstraZeneca

$$$$
CHEMBL63
     RDKit          2D

 20 22  0  0  1  0  0  0  0  0999 V2000
   -4.3646   -3.1190    0.0000 C   0  0  0  0  0  0  0  0  0  0  0  0
   -3.3707   -3.2292    0.0000 O   0  0  0  0  0  0  0  0  0  0  0  0
   -2.7783   -2.4236    0.0000 C   0  0  0  0  0  0  0  0  0  0  0  0
   -3.1785   -1.5071    0.0000 C   0  0  0  0  0  0  0  0  0  0  0  0
   -2.5896   -0.6989    0.0000 C   0  0  0  0  0  0  0  0  0  0  0  0
   -1.5904   -0.8082    0.0000 C   0  0  0  0  0  0  0  0  0  0  0  0
   -1.1800   -1.7258    0.0000 C   0  0  0  0  0  0  0  0  0  0  0  0
   -1.7791   -2.5329    0.0000 C   0  0  0  0  0  0  0  0  0  0  0  0
   -1.3790   -3.4494    0.0000 O   0  0  0  0  0  0  0  0  0  0  0  0
   -0.3852   -3.5611    0.0000 C   0  0  0  0  0  0  0  0  0  0  0  0
    0.2911   -2.8223    0.0000 C   0  0  0  0  0  0  0  0  0  0  0  0
    1.2035   -3.2350    0.0000 C   0  0  0  0  0  0  0  0  0  0  0  0
    1.0904   -4.2286    0.0000 C   0  0  0  0  0  0  0  0  0  0  0  0
    0.1115   -4.4341    0.0000 C   0  0  0  0  0  0  0  0  0  0  0  0
   -1.0015    0.0000    0.0000 C   0  0  0  0  0  0  0  0  0  0  0  0
   -1.3080    0.9519    0.0000 C   0  0  0  0  0  0  0  0  0  0  0  0
   -0.5007    1.5428    0.0000 N   0  0  0  0  0  0  0  0  0  0  0  0
    0.3118    0.9519    0.0000 C   0  0  0  0  0  0  0  0  0  0  0  0
    1.2633    1.2596    0.0000 O   0  0  0  0  0  0  0  0  0  0  0  0
    0.0000    0.0000    0.0000 C   0  0  0  0  0  0  0  0  0  0  0  0
  1  2  1  0
  2  3  1  0
  3  8  2  0
  3  4  1  0
  4  5  2  0
  5  6  1  0
  6  7  2  0
  7  8  1  0
  8  9  1  0
  9 10  1  0
 10 14  1  0
 10 11  1  0
 11 12  1  0
 12 13  1  0
 13 14  1  0
  6 15  1  0
 15 20  1  0
 15 16  1  0
 16 17  1  0
 17 18  1  0
 18 19  2  0
 18 20  1  0
M  END
>  <SMILES>  (380) 
COc1ccc(C2CNC(=O)C2)cc1OC1CCCC1

>  <CollectionName>  (380) 
chembl

>  <LOG PLASMA PROTEIN BINDING (RAT) (% unbound)>  (380) 
1.51693180887

>  <Internal ID>  (380) 


>  <Source>  (380) 
AstraZeneca

$$$$
CHEMBL957
     RDKit          2D

 39 42  0  0  0  0  0  0  0  0999 V2000
    7.8047    4.5103    0.0000 C   0  0  0  0  0  0  0  0  0  0  0  0
    6.9386    4.0104    0.0000 O   0  0  0  0  0  0  0  0  0  0  0  0
    6.0726    4.5104    0.0000 C   0  0  0  0  0  0  0  0  0  0  0  0
    6.0712    5.5104    0.0000 C   0  0  0  0  0  0  0  0  0  0  0  0
    5.2074    6.0142    0.0000 C   0  0  0  0  0  0  0  0  0  0  0  0
    4.3361    5.5130    0.0000 C   0  0  0  0  0  0  0  0  0  0  0  0
    4.3287    4.5078    0.0000 C   0  0  0  0  0  0  0  0  0  0  0  0
    5.2013    4.0091    0.0000 C   0  0  0  0  0  0  0  0  0  0  0  0
    5.2028    3.0091    0.0000 O   0  0  0  0  0  0  0  0  0  0  0  0
    4.3375    2.5078    0.0000 C   0  0  0  0  0  0  0  0  0  0  0  0
    4.3375    1.5026    0.0000 C   0  0  0  0  0  0  0  0  0  0  0  0
    5.2050    1.0052    0.0000 N   0  0  0  0  0  0  0  0  0  0  0  0
    5.2079    0.0052    0.0000 S   0  0  0  0  0  0  0  0  0  0  0  0
    6.2079    0.0082    0.0000 O   0  0  0  0  0  0  0  0  0  0  0  0
    4.2079    0.0023    0.0000 O   0  0  0  0  0  0  0  0  0  0  0  0
    5.2109   -0.9948    0.0000 C   0  0  0  0  0  0  0  0  0  0  0  0
    4.3404   -1.4974    0.0000 C   0  0  0  0  0  0  0  0  0  0  0  0
    4.3433   -2.4974    0.0000 C   0  0  0  0  0  0  0  0  0  0  0  0
    5.2079   -2.9999    0.0000 C   0  0  0  0  0  0  0  0  0  0  0  0
    6.0784   -2.4973    0.0000 C   0  0  0  0  0  0  0  0  0  0  0  0
    6.0843   -1.4922    0.0000 C   0  0  0  0  0  0  0  0  0  0  0  0
    5.2064   -3.9999    0.0000 C   0  0  0  0  0  0  0  0  0  0  0  0
    5.2050   -4.9999    0.0000 C   0  0  0  0  0  0  0  0  0  0  0  0
    6.2064   -4.0014    0.0000 C   0  0  0  0  0  0  0  0  0  0  0  0
    4.2064   -3.9985    0.0000 C   0  0  0  0  0  0  0  0  0  0  0  0
    3.4700    0.9949    0.0000 N   0  0  0  0  0  0  0  0  0  0  0  0
    2.6025    1.5026    0.0000 C   0  0  0  0  0  0  0  0  0  0  0  0
    2.6025    2.5078    0.0000 N   0  0  0  0  0  0  0  0  0  0  0  0
    3.4700    3.0053    0.0000 C   0  0  0  0  0  0  0  0  0  0  0  0
    3.4700    4.0053    0.0000 O   0  0  0  0  0  0  0  0  0  0  0  0
    2.6040    4.5053    0.0000 C   0  0  0  0  0  0  0  0  0  0  0  0
    2.6040    5.5053    0.0000 C   0  0  0  0  0  0  0  0  0  0  0  0
    1.7379    6.0053    0.0000 O   0  0  0  0  0  0  0  0  0  0  0  0
    1.7350    1.0052    0.0000 C   0  0  0  0  0  0  0  0  0  0  0  0
    0.8675    1.5129    0.0000 N   0  0  0  0  0  0  0  0  0  0  0  0
    0.0000    1.0052    0.0000 C   0  0  0  0  0  0  0  0  0  0  0  0
    0.0000    0.0000    0.0000 C   0  0  0  0  0  0  0  0  0  0  0  0
    0.8675   -0.4975    0.0000 C   0  0  0  0  0  0  0  0  0  0  0  0
    1.7350    0.0000    0.0000 N   0  0  0  0  0  0  0  0  0  0  0  0
  1  2  1  0
  2  3  1  0
  3  8  2  0
  3  4  1  0
  4  5  2  0
  5  6  1  0
  6  7  2  0
  7  8  1  0
  8  9  1  0
  9 10  1  0
 10 29  2  0
 10 11  1  0
 11 12  1  0
 12 13  1  0
 13 14  2  0
 13 15  2  0
 13 16  1  0
 16 21  1  0
 16 17  2  0
 17 18  1  0
 18 19  2  0
 19 20  1  0
 20 21  2  0
 19 22  1  0
 22 23  1  0
 22 24  1  0
 22 25  1  0
 11 26  2  0
 26 27  1  0
 27 28  2  0
 28 29  1  0
 29 30  1  0
 30 31  1  0
 31 32  1  0
 32 33  1  0
 27 34  1  0
 34 39  1  0
 34 35  2  0
 35 36  1  0
 36 37  2  0
 37 38  1  0
 38 39  2  0
M  END
>  <SMILES>  (381) 
COc1ccccc1Oc1c(NS(=O)(=O)c2ccc(C(C)(C)C)cc2)nc(-c2ncccn2)nc1OCCO

>  <CollectionName>  (381) 
chembl

>  <LOG PLASMA PROTEIN BINDING (RAT) (% unbound)>  (381) 
0.0863598306747

>  <Internal ID>  (381) 


>  <Source>  (381) 
AstraZeneca

$$$$
CHEMBL6966
     RDKit          2D

 33 34  0  0  1  0  0  0  0  0999 V2000
    2.5988   -1.5013    0.0000 C   0  0  0  0  0  0  0  0  0  0  0  0
    2.6003   -0.5013    0.0000 O   0  0  0  0  0  0  0  0  0  0  0  0
    1.7350   -0.0000    0.0000 C   0  0  0  0  0  0  0  0  0  0  0  0
    0.8675   -0.4975    0.0000 C   0  0  0  0  0  0  0  0  0  0  0  0
    0.0000    0.0000    0.0000 C   0  0  0  0  0  0  0  0  0  0  0  0
    0.0000    1.0052    0.0000 C   0  0  0  0  0  0  0  0  0  0  0  0
   -0.8675    1.5026    0.0000 C   0  0  0  0  0  0  0  0  0  0  0  0
   -0.8704    2.5026    0.0000 C   0  0  0  0  0  0  0  0  0  0  0  0
   -1.7379    3.0001    0.0000 N   0  0  0  0  0  0  0  0  0  0  0  0
   -2.6025    2.4975    0.0000 C   0  0  0  0  0  0  0  0  0  0  0  0
   -1.7409    4.0001    0.0000 C   0  0  0  0  0  0  0  0  0  0  0  0
   -2.6084    4.4975    0.0000 C   0  0  0  0  0  0  0  0  0  0  0  0
   -2.6113    5.4975    0.0000 C   0  0  0  0  0  0  0  0  0  0  0  0
   -3.4788    5.9950    0.0000 C   0  0  0  0  0  0  0  0  0  0  0  0
   -3.9763    5.1275    0.0000 C   0  0  0  0  0  0  0  0  0  0  0  0
   -4.4737    4.2600    0.0000 N   0  0  0  0  0  0  0  0  0  0  0  0
   -4.3463    6.4924    0.0000 C   0  0  0  0  0  0  0  0  0  0  0  0
   -5.2109    5.9899    0.0000 C   0  0  0  0  0  0  0  0  0  0  0  0
   -4.3493    7.4924    0.0000 C   0  0  0  0  0  0  0  0  0  0  0  0
   -2.6083    7.5131    0.0000 C   0  0  0  0  0  0  0  0  0  0  0  0
   -1.6031    7.5131    0.0000 C   0  0  0  0  0  0  0  0  0  0  0  0
   -1.1056    8.3806    0.0000 C   0  0  0  0  0  0  0  0  0  0  0  0
   -1.6031    9.2481    0.0000 C   0  0  0  0  0  0  0  0  0  0  0  0
   -1.1019   10.1134    0.0000 O   0  0  0  0  0  0  0  0  0  0  0  0
   -0.1019   10.1119    0.0000 C   0  0  0  0  0  0  0  0  0  0  0  0
   -2.6083    9.2481    0.0000 C   0  0  0  0  0  0  0  0  0  0  0  0
   -3.1058   10.1156    0.0000 O   0  0  0  0  0  0  0  0  0  0  0  0
   -2.6032   10.9801    0.0000 C   0  0  0  0  0  0  0  0  0  0  0  0
   -3.1160    8.3806    0.0000 C   0  0  0  0  0  0  0  0  0  0  0  0
    0.8675    1.5129    0.0000 C   0  0  0  0  0  0  0  0  0  0  0  0
    1.7350    1.0052    0.0000 C   0  0  0  0  0  0  0  0  0  0  0  0
    2.6025    1.5026    0.0000 O   0  0  0  0  0  0  0  0  0  0  0  0
    3.4670    1.0001    0.0000 C   0  0  0  0  0  0  0  0  0  0  0  0
  1  2  1  0
  2  3  1  0
  3 31  2  0
  3  4  1  0
  4  5  2  0
  5  6  1  0
  6  7  1  0
  7  8  1  0
  8  9  1  0
  9 10  1  0
  9 11  1  0
 11 12  1  0
 12 13  1  0
 13 14  1  0
 14 15  1  0
 15 16  3  0
 14 17  1  0
 17 18  1  0
 17 19  1  0
 14 20  1  0
 20 29  1  0
 20 21  2  0
 21 22  1  0
 22 23  2  0
 23 24  1  0
 24 25  1  0
 23 26  1  0
 26 27  1  0
 27 28  1  0
 26 29  2  0
  6 30  2  0
 30 31  1  0
 31 32  1  0
 32 33  1  0
M  END
>  <SMILES>  (382) 
COc1ccc(CCN(C)CCCC(C#N)(c2ccc(OC)c(OC)c2)C(C)C)cc1OC

>  <CollectionName>  (382) 
chembl

>  <LOG PLASMA PROTEIN BINDING (RAT) (% unbound)>  (382) 
1.14457420761

>  <Internal ID>  (382) 


>  <Source>  (382) 
AstraZeneca

$$$$
CHEMBL339053
     RDKit          2D

 42 47  0  0  1  0  0  0  0  0999 V2000
    6.9627    3.9784    0.0000 Cl  0  0  0  0  0  0  0  0  0  0  0  0
    6.9615    2.9784    0.0000 C   0  0  0  0  0  0  0  0  0  0  0  0
    6.0889    2.4794    0.0000 C   0  0  0  0  0  0  0  0  0  0  0  0
    6.0877    1.4794    0.0000 C   0  0  0  0  0  0  0  0  0  0  0  0
    6.9502    0.9732    0.0000 C   0  0  0  0  0  0  0  0  0  0  0  0
    6.9445   -0.0267    0.0000 C   0  0  0  0  0  0  0  0  0  0  0  0
    6.0757   -0.5219    0.0000 C   0  0  0  0  0  0  0  0  0  0  0  0
    5.2125   -0.0170    0.0000 N   0  0  0  0  0  0  0  0  0  0  0  0
    4.3437   -0.5122    0.0000 C   0  0  0  0  0  0  0  0  0  0  0  0
    4.3381   -1.5121    0.0000 O   0  0  0  0  0  0  0  0  0  0  0  0
    3.4805   -0.0073    0.0000 C   0  0  0  0  0  0  0  0  0  0  0  0
    2.6039   -0.5053    0.0000 C   0  0  0  0  0  0  0  0  0  0  0  0
    1.7371   -0.0000    0.0000 C   0  0  0  0  0  0  0  0  0  0  0  0
    0.8707   -0.4993    0.0000 C   0  0  0  0  0  0  0  0  0  0  0  0
    0.0000    0.0000    0.0000 C   0  0  0  0  0  0  0  0  0  0  0  0
    0.0000    1.0089    0.0000 C   0  0  0  0  0  0  0  0  0  0  0  0
    0.8707    1.5185    0.0000 C   0  0  0  0  0  0  0  0  0  0  0  0
    1.7414    1.0089    0.0000 C   0  0  0  0  0  0  0  0  0  0  0  0
    2.6125    1.5125    0.0000 C   0  0  0  0  0  0  0  0  0  0  0  0
    3.4848    1.0014    0.0000 N   0  0  0  0  0  0  0  0  0  0  0  0
    6.0701   -1.5219    0.0000 C   0  0  0  0  0  0  0  0  0  0  0  0
    5.2013   -2.0170    0.0000 O   0  0  0  0  0  0  0  0  0  0  0  0
    6.9333   -2.0267    0.0000 N   0  0  0  0  0  0  0  0  0  0  0  0
    6.9336   -3.0319    0.0000 C   0  0  0  0  0  0  0  0  0  0  0  0
    7.8013   -3.5393    0.0000 C   0  0  0  0  0  0  0  0  0  0  0  0
    8.6687   -3.0417    0.0000 C   0  0  0  0  0  0  0  0  0  0  0  0
    9.6546   -2.8745    0.0000 C   0  0  0  0  0  0  0  0  0  0  0  0
   10.0028   -1.9371    0.0000 N   0  0  0  0  0  0  0  0  0  0  0  0
   10.9657   -1.6658    0.0000 C   0  0  0  0  0  0  0  0  0  0  0  0
   11.0114   -0.6669    0.0000 N   0  0  0  0  0  0  0  0  0  0  0  0
   10.0731   -0.3168    0.0000 C   0  0  0  0  0  0  0  0  0  0  0  0
    9.4482   -1.0995    0.0000 N   0  0  0  0  0  0  0  0  0  0  0  0
    8.6772   -2.0417    0.0000 C   0  0  0  0  0  0  0  0  0  0  0  0
    7.8095   -1.5342    0.0000 C   0  0  0  0  0  0  0  0  0  0  0  0
    9.0064   -3.9829    0.0000 C   0  0  0  0  0  0  0  0  0  0  0  0
    9.9960   -4.1592    0.0000 C   0  0  0  0  0  0  0  0  0  0  0  0
   10.3337   -5.1005    0.0000 C   0  0  0  0  0  0  0  0  0  0  0  0
    9.6918   -5.8673    0.0000 C   0  0  0  0  0  0  0  0  0  0  0  0
    8.7022   -5.6911    0.0000 C   0  0  0  0  0  0  0  0  0  0  0  0
    8.3544   -4.7480    0.0000 C   0  0  0  0  0  0  0  0  0  0  0  0
    7.8228    1.4722    0.0000 C   0  0  0  0  0  0  0  0  0  0  0  0
    7.8329    2.4773    0.0000 C   0  0  0  0  0  0  0  0  0  0  0  0
  1  2  1  0
  2 42  2  0
  2  3  1  0
  3  4  2  0
  4  5  1  0
  5  6  1  0
  7  6  1  6
  7  8  1  0
  8  9  1  0
  9 10  2  0
 11  9  1  1
 11 20  1  0
 11 12  1  0
 12 13  1  0
 13 18  2  0
 13 14  1  0
 14 15  2  0
 15 16  1  0
 16 17  2  0
 17 18  1  0
 18 19  1  0
 19 20  1  0
  7 21  1  0
 21 22  2  0
 21 23  1  0
 23 34  1  0
 23 24  1  0
 24 25  1  0
 25 26  1  0
 26 27  1  0
 27 28  1  0
 28 32  1  0
 28 29  1  0
 29 30  2  0
 30 31  1  0
 31 32  2  0
 26 33  1  0
 33 34  1  0
 26 35  1  0
 35 40  1  0
 35 36  1  0
 36 37  1  0
 37 38  1  0
 38 39  1  0
 39 40  1  0
  5 41  2  0
 41 42  1  0
M  END
>  <SMILES>  (383) 
O=C(N[C@H](Cc1ccc(Cl)cc1)C(=O)N1CCC(Cn2cncn2)(C2CCCCC2)CC1)[C@H]1Cc2ccccc2CN1

>  <CollectionName>  (383) 
chembl

>  <LOG PLASMA PROTEIN BINDING (RAT) (% unbound)>  (383) 
-0.283996656365

>  <Internal ID>  (383) 


>  <Source>  (383) 
AstraZeneca

$$$$
CHEMBL1254945
     RDKit          2D

 36 41  0  0  0  0  0  0  0  0999 V2000
  -10.4416    3.7668    0.0000 Cl  0  0  0  0  0  0  0  0  0  0  0  0
  -10.4462    2.7668    0.0000 C   0  0  0  0  0  0  0  0  0  0  0  0
  -11.3165    2.2629    0.0000 C   0  0  0  0  0  0  0  0  0  0  0  0
  -11.3211    1.2571    0.0000 C   0  0  0  0  0  0  0  0  0  0  0  0
  -10.4553    0.7552    0.0000 C   0  0  0  0  0  0  0  0  0  0  0  0
   -9.5851    1.2479    0.0000 C   0  0  0  0  0  0  0  0  0  0  0  0
   -8.6287    0.9322    0.0000 C   0  0  0  0  0  0  0  0  0  0  0  0
   -8.0330    1.7443    0.0000 N   0  0  0  0  0  0  0  0  0  0  0  0
   -8.6213    2.5616    0.0000 C   0  0  0  0  0  0  0  0  0  0  0  0
   -8.3079    3.5112    0.0000 O   0  0  0  0  0  0  0  0  0  0  0  0
   -9.5805    2.2549    0.0000 C   0  0  0  0  0  0  0  0  0  0  0  0
   -7.0330    1.7398    0.0000 C   0  0  0  0  0  0  0  0  0  0  0  0
   -6.5291    2.6095    0.0000 C   0  0  0  0  0  0  0  0  0  0  0  0
   -5.5290    2.6051    0.0000 C   0  0  0  0  0  0  0  0  0  0  0  0
   -5.0279    1.7397    0.0000 C   0  0  0  0  0  0  0  0  0  0  0  0
   -5.5318    0.8699    0.0000 C   0  0  0  0  0  0  0  0  0  0  0  0
   -6.5369    0.8656    0.0000 C   0  0  0  0  0  0  0  0  0  0  0  0
   -5.0306    0.0046    0.0000 C   0  0  0  0  0  0  0  0  0  0  0  0
   -5.5294   -0.8621    0.0000 O   0  0  0  0  0  0  0  0  0  0  0  0
   -4.0306    0.0060    0.0000 N   0  0  0  0  0  0  0  0  0  0  0  0
   -3.5227   -0.8640    0.0000 C   0  0  0  0  0  0  0  0  0  0  0  0
   -2.5125   -0.8640    0.0000 C   0  0  0  0  0  0  0  0  0  0  0  0
   -2.0075    0.0084    0.0000 C   0  0  0  0  0  0  0  0  0  0  0  0
   -2.5125    0.8816    0.0000 C   0  0  0  0  0  0  0  0  0  0  0  0
   -3.5227    0.8816    0.0000 C   0  0  0  0  0  0  0  0  0  0  0  0
   -1.5075   -0.8640    0.0000 C   0  0  0  0  0  0  0  0  0  0  0  0
   -0.5075   -0.8672    0.0000 C   0  0  0  0  0  0  0  0  0  0  0  0
    0.0000    0.0000    0.0000 N   0  0  0  0  0  0  0  0  0  0  0  0
   -0.4999    0.8724    0.0000 C   0  0  0  0  0  0  0  0  0  0  0  0
   -1.5075    0.8776    0.0000 C   0  0  0  0  0  0  0  0  0  0  0  0
    1.0000   -0.0046    0.0000 C   0  0  0  0  0  0  0  0  0  0  0  0
    1.5014    0.8607    0.0000 C   0  0  0  0  0  0  0  0  0  0  0  0
    2.5066    0.8561    0.0000 C   0  0  0  0  0  0  0  0  0  0  0  0
    3.0104   -0.0138    0.0000 N   0  0  0  0  0  0  0  0  0  0  0  0
    2.4987   -0.8789    0.0000 C   0  0  0  0  0  0  0  0  0  0  0  0
    1.4935   -0.8743    0.0000 C   0  0  0  0  0  0  0  0  0  0  0  0
  1  2  1  0
  2 11  2  0
  2  3  1  0
  3  4  2  0
  4  5  1  0
  5  6  2  0
  6 11  1  0
  6  7  1  0
  7  8  1  0
  8  9  1  0
  9 10  2  0
  9 11  1  0
  8 12  1  0
 12 17  1  0
 12 13  2  0
 13 14  1  0
 14 15  2  0
 15 16  1  0
 16 17  2  0
 16 18  1  0
 18 19  2  0
 18 20  1  0
 20 25  1  0
 20 21  1  0
 21 22  1  0
 22 23  1  0
 23 30  1  0
 23 24  1  0
 24 25  1  0
 23 26  1  0
 26 27  1  0
 27 28  1  0
 28 29  1  0
 29 30  1  0
 28 31  1  0
 31 36  1  0
 31 32  2  0
 32 33  1  0
 33 34  2  0
 34 35  1  0
 35 36  2  0
M  END
>  <SMILES>  (384) 
O=C(c1cccc(N2Cc3cccc(Cl)c3C2=O)c1)N1CCC2(CC1)CCN(c1ccncc1)CC2

>  <CollectionName>  (384) 
chembl

>  <LOG PLASMA PROTEIN BINDING (RAT) (% unbound)>  (384) 
0.621176281775

>  <Internal ID>  (384) 


>  <Source>  (384) 
AstraZeneca

$$$$
CHEMBL1257491
     RDKit          2D

 27 30  0  0  0  0  0  0  0  0999 V2000
   -0.8675    1.5063    0.0000 O   0  0  0  0  0  0  0  0  0  0  0  0
    0.0000    1.0089    0.0000 C   0  0  0  0  0  0  0  0  0  0  0  0
    0.0000    0.0000    0.0000 C   0  0  0  0  0  0  0  0  0  0  0  0
    0.8707   -0.4993    0.0000 C   0  0  0  0  0  0  0  0  0  0  0  0
    1.7371   -0.0000    0.0000 C   0  0  0  0  0  0  0  0  0  0  0  0
    2.6039   -0.5053    0.0000 C   0  0  0  0  0  0  0  0  0  0  0  0
    3.4805   -0.0073    0.0000 C   0  0  0  0  0  0  0  0  0  0  0  0
    4.3437   -0.5122    0.0000 C   0  0  0  0  0  0  0  0  0  0  0  0
    4.3381   -1.5121    0.0000 N   0  0  0  0  0  0  0  0  0  0  0  0
    5.2013   -2.0170    0.0000 C   0  0  0  0  0  0  0  0  0  0  0  0
    5.1957   -3.0170    0.0000 C   0  0  0  0  0  0  0  0  0  0  0  0
    6.0589   -3.5218    0.0000 C   0  0  0  0  0  0  0  0  0  0  0  0
    6.0547   -4.5219    0.0000 C   0  0  0  0  0  0  0  0  0  0  0  0
    6.9158   -5.0305    0.0000 C   0  0  0  0  0  0  0  0  0  0  0  0
    7.7898   -4.5340    0.0000 C   0  0  0  0  0  0  0  0  0  0  0  0
    8.6508   -5.0427    0.0000 Br  0  0  0  0  0  0  0  0  0  0  0  0
    7.8028   -3.5290    0.0000 C   0  0  0  0  0  0  0  0  0  0  0  0
    6.9329   -3.0254    0.0000 C   0  0  0  0  0  0  0  0  0  0  0  0
    3.4848    1.0014    0.0000 C   0  0  0  0  0  0  0  0  0  0  0  0
    2.6125    1.5125    0.0000 N   0  0  0  0  0  0  0  0  0  0  0  0
    1.7414    1.0089    0.0000 C   0  0  0  0  0  0  0  0  0  0  0  0
    0.8707    1.5185    0.0000 C   0  0  0  0  0  0  0  0  0  0  0  0
    4.3535    1.4968    0.0000 C   0  0  0  0  0  0  0  0  0  0  0  0
    4.4623    2.4923    0.0000 C   0  0  0  0  0  0  0  0  0  0  0  0
    5.4419    2.6936    0.0000 C   0  0  0  0  0  0  0  0  0  0  0  0
    5.9415    1.8269    0.0000 S   0  0  0  0  0  0  0  0  0  0  0  0
    5.2659    1.0834    0.0000 C   0  0  0  0  0  0  0  0  0  0  0  0
  1  2  1  0
  2 22  2  0
  2  3  1  0
  3  4  2  0
  4  5  1  0
  5 21  2  0
  5  6  1  0
  6  7  2  0
  7  8  1  0
  8  9  1  0
  9 10  1  0
 10 11  1  0
 11 12  1  0
 12 18  1  0
 12 13  2  0
 13 14  1  0
 14 15  2  0
 15 16  1  0
 15 17  1  0
 17 18  2  0
  7 19  1  0
 19 20  2  0
 20 21  1  0
 21 22  1  0
 19 23  1  0
 23 27  2  0
 23 24  1  0
 24 25  2  0
 25 26  1  0
 26 27  1  0
M  END
>  <SMILES>  (385) 
Oc1ccc2cc(CNCCc3ccc(Br)cc3)c(-c3ccsc3)nc2c1

>  <CollectionName>  (385) 
chembl

>  <LOG PLASMA PROTEIN BINDING (RAT) (% unbound)>  (385) 
-0.52287874528

>  <Internal ID>  (385) 


>  <Source>  (385) 
AstraZeneca

$$$$
CHEMBL1287853
     RDKit          2D

 37 40  0  0  0  0  0  0  0  0999 V2000
   -0.8653   -0.5013    0.0000 C   0  0  0  0  0  0  0  0  0  0  0  0
    0.0000    0.0000    0.0000 C   0  0  0  0  0  0  0  0  0  0  0  0
    0.0000    1.0052    0.0000 C   0  0  0  0  0  0  0  0  0  0  0  0
    0.8675    1.5129    0.0000 N   0  0  0  0  0  0  0  0  0  0  0  0
    1.7350    1.0052    0.0000 C   0  0  0  0  0  0  0  0  0  0  0  0
    2.6025    1.5026    0.0000 N   0  0  0  0  0  0  0  0  0  0  0  0
    3.4670    1.0001    0.0000 C   0  0  0  0  0  0  0  0  0  0  0  0
    3.4655    0.0001    0.0000 C   0  0  0  0  0  0  0  0  0  0  0  0
    4.3279   -0.5063    0.0000 C   0  0  0  0  0  0  0  0  0  0  0  0
    5.2007   -0.0075    0.0000 C   0  0  0  0  0  0  0  0  0  0  0  0
    6.0630   -0.5139    0.0000 O   0  0  0  0  0  0  0  0  0  0  0  0
    6.9327   -0.0202    0.0000 C   0  0  0  0  0  0  0  0  0  0  0  0
    7.7950   -0.5266    0.0000 C   0  0  0  0  0  0  0  0  0  0  0  0
    8.6647   -0.0330    0.0000 N   0  0  0  0  0  0  0  0  0  0  0  0
    9.5764   -0.4448    0.0000 C   0  0  0  0  0  0  0  0  0  0  0  0
   10.2541    0.2906    0.0000 C   0  0  0  0  0  0  0  0  0  0  0  0
    9.7611    1.1624    0.0000 C   0  0  0  0  0  0  0  0  0  0  0  0
    8.7790    0.9651    0.0000 C   0  0  0  0  0  0  0  0  0  0  0  0
    5.2110    0.9976    0.0000 C   0  0  0  0  0  0  0  0  0  0  0  0
    4.3398    1.4989    0.0000 C   0  0  0  0  0  0  0  0  0  0  0  0
    1.7350    0.0000    0.0000 N   0  0  0  0  0  0  0  0  0  0  0  0
    0.8675   -0.4975    0.0000 C   0  0  0  0  0  0  0  0  0  0  0  0
    0.8675   -1.4975    0.0000 N   0  0  0  0  0  0  0  0  0  0  0  0
    0.0015   -1.9975    0.0000 C   0  0  0  0  0  0  0  0  0  0  0  0
   -0.8676   -1.4923    0.0000 C   0  0  0  0  0  0  0  0  0  0  0  0
   -1.7336   -1.9923    0.0000 C   0  0  0  0  0  0  0  0  0  0  0  0
   -1.7395   -2.9923    0.0000 C   0  0  0  0  0  0  0  0  0  0  0  0
   -0.8705   -3.4975    0.0000 C   0  0  0  0  0  0  0  0  0  0  0  0
    0.0044   -3.0026    0.0000 C   0  0  0  0  0  0  0  0  0  0  0  0
   -0.8764   -4.4975    0.0000 S   0  0  0  0  0  0  0  0  0  0  0  0
    0.1236   -4.5034    0.0000 O   0  0  0  0  0  0  0  0  0  0  0  0
   -1.8763   -4.4916    0.0000 O   0  0  0  0  0  0  0  0  0  0  0  0
   -0.8823   -5.4975    0.0000 N   0  0  0  0  0  0  0  0  0  0  0  0
   -0.8882   -6.4974    0.0000 C   0  0  0  0  0  0  0  0  0  0  0  0
   -0.8941   -7.4974    0.0000 C   0  0  0  0  0  0  0  0  0  0  0  0
   -1.8881   -6.4915    0.0000 C   0  0  0  0  0  0  0  0  0  0  0  0
    0.1118   -6.5033    0.0000 C   0  0  0  0  0  0  0  0  0  0  0  0
  1  2  1  0
  2 22  2  0
  2  3  1  0
  3  4  2  0
  4  5  1  0
  5  6  1  0
  6  7  1  0
  7 20  1  0
  7  8  2  0
  8  9  1  0
  9 10  2  0
 10 11  1  0
 11 12  1  0
 12 13  1  0
 13 14  1  0
 14 18  1  0
 14 15  1  0
 15 16  1  0
 16 17  1  0
 17 18  1  0
 10 19  1  0
 19 20  2  0
  5 21  2  0
 21 22  1  0
 22 23  1  0
 23 24  1  0
 24 29  1  0
 24 25  2  0
 25 26  1  0
 26 27  2  0
 27 28  1  0
 28 29  2  0
 28 30  1  0
 30 31  2  0
 30 32  2  0
 30 33  1  0
 33 34  1  0
 34 35  1  0
 34 36  1  0
 34 37  1  0
M  END
>  <SMILES>  (386) 
Cc1cnc(Nc2ccc(OCCN3CCCC3)cc2)nc1Nc1cccc(S(=O)(=O)NC(C)(C)C)c1

>  <CollectionName>  (386) 
chembl

>  <LOG PLASMA PROTEIN BINDING (RAT) (% unbound)>  (386) 
1.31069331234

>  <Internal ID>  (386) 


>  <Source>  (386) 
AstraZeneca

$$$$
CHEMBL1287920
     RDKit          2D

 25 28  0  0  1  0  0  0  0  0999 V2000
    0.0020    3.0138    0.0000 N   0  0  0  0  0  0  0  0  0  0  0  0
    0.8680    2.5138    0.0000 C   0  0  0  0  0  0  0  0  0  0  0  0
    1.7340    3.0138    0.0000 O   0  0  0  0  0  0  0  0  0  0  0  0
    0.8680    1.5138    0.0000 C   0  0  0  0  0  0  0  0  0  0  0  0
    0.0000    1.0058    0.0000 C   0  0  0  0  0  0  0  0  0  0  0  0
    0.0000    0.0000    0.0000 N   0  0  0  0  0  0  0  0  0  0  0  0
    0.8680   -0.4978    0.0000 C   0  0  0  0  0  0  0  0  0  0  0  0
    0.8675   -1.4978    0.0000 N   0  0  0  0  0  0  0  0  0  0  0  0
    1.7332   -1.9983    0.0000 C   0  0  0  0  0  0  0  0  0  0  0  0
    2.6003   -1.4999    0.0000 C   0  0  0  0  0  0  0  0  0  0  0  0
    3.4682   -1.9966    0.0000 C   0  0  0  0  0  0  0  0  0  0  0  0
    3.4692   -3.0018    0.0000 C   0  0  0  0  0  0  0  0  0  0  0  0
    2.6022   -3.5103    0.0000 N   0  0  0  0  0  0  0  0  0  0  0  0
    1.7342   -3.0035    0.0000 C   0  0  0  0  0  0  0  0  0  0  0  0
    1.7360   -0.0012    0.0000 C   0  0  0  0  0  0  0  0  0  0  0  0
    2.6938   -0.3125    0.0000 C   0  0  0  0  0  0  0  0  0  0  0  0
    3.2858    0.5023    0.0000 C   0  0  0  0  0  0  0  0  0  0  0  0
    2.6938    1.3169    0.0000 S   0  0  0  0  0  0  0  0  0  0  0  0
    1.7360    1.0058    0.0000 C   0  0  0  0  0  0  0  0  0  0  0  0
    4.2858    0.5024    0.0000 C   0  0  0  0  0  0  0  0  0  0  0  0
    4.7858    1.3744    0.0000 C   0  0  0  0  0  0  0  0  0  0  0  0
    5.7858    1.3745    0.0000 C   0  0  0  0  0  0  0  0  0  0  0  0
    6.2909    0.5114    0.0000 C   0  0  0  0  0  0  0  0  0  0  0  0
    5.7910   -0.3606    0.0000 C   0  0  0  0  0  0  0  0  0  0  0  0
    4.7859   -0.3696    0.0000 C   0  0  0  0  0  0  0  0  0  0  0  0
  1  2  1  0
  2  3  2  0
  2  4  1  0
  4 19  2  0
  4  5  1  0
  5  6  2  0
  6  7  1  0
  7  8  1  0
  9  8  1  1
  9 14  1  0
  9 10  1  0
 10 11  1  0
 11 12  1  0
 12 13  1  0
 13 14  1  0
  7 15  2  0
 15 19  1  0
 15 16  1  0
 16 17  2  0
 17 18  1  0
 18 19  1  0
 17 20  1  0
 20 25  1  0
 20 21  2  0
 21 22  1  0
 22 23  2  0
 23 24  1  0
 24 25  2  0
M  END
>  <SMILES>  (387) 
NC(=O)c1cnc(N[C@H]2CCCNC2)c2cc(-c3ccccc3)sc12

>  <CollectionName>  (387) 
chembl

>  <LOG PLASMA PROTEIN BINDING (RAT) (% unbound)>  (387) 
1.34986008219

>  <Internal ID>  (387) 


>  <Source>  (387) 
AstraZeneca

$$$$
CHEMBL1289283
     RDKit          2D

 31 35  0  0  0  0  0  0  0  0999 V2000
   -0.0045   -2.0077    0.0000 O   0  0  0  0  0  0  0  0  0  0  0  0
   -0.8698   -1.5064    0.0000 C   0  0  0  0  0  0  0  0  0  0  0  0
   -1.7396   -2.0102    0.0000 C   0  0  0  0  0  0  0  0  0  0  0  0
   -2.6049   -1.5090    0.0000 C   0  0  0  0  0  0  0  0  0  0  0  0
   -3.4702   -2.0102    0.0000 O   0  0  0  0  0  0  0  0  0  0  0  0
   -3.4688   -3.0102    0.0000 C   0  0  0  0  0  0  0  0  0  0  0  0
   -4.3341   -3.5115    0.0000 C   0  0  0  0  0  0  0  0  0  0  0  0
   -4.3296   -4.5167    0.0000 C   0  0  0  0  0  0  0  0  0  0  0  0
   -5.1949   -5.0180    0.0000 C   0  0  0  0  0  0  0  0  0  0  0  0
   -6.0646   -4.5243    0.0000 C   0  0  0  0  0  0  0  0  0  0  0  0
   -6.0690   -3.5191    0.0000 C   0  0  0  0  0  0  0  0  0  0  0  0
   -5.2038   -3.0076    0.0000 C   0  0  0  0  0  0  0  0  0  0  0  0
   -2.6093   -0.5089    0.0000 C   0  0  0  0  0  0  0  0  0  0  0  0
   -1.7395   -0.0051    0.0000 C   0  0  0  0  0  0  0  0  0  0  0  0
   -0.8653   -0.5013    0.0000 N   0  0  0  0  0  0  0  0  0  0  0  0
    0.0000    0.0000    0.0000 C   0  0  0  0  0  0  0  0  0  0  0  0
    0.0000    1.0058    0.0000 C   0  0  0  0  0  0  0  0  0  0  0  0
    0.8680    1.5138    0.0000 C   0  0  0  0  0  0  0  0  0  0  0  0
    1.7360    1.0058    0.0000 C   0  0  0  0  0  0  0  0  0  0  0  0
    1.7360   -0.0012    0.0000 C   0  0  0  0  0  0  0  0  0  0  0  0
    2.6938   -0.3126    0.0000 C   0  0  0  0  0  0  0  0  0  0  0  0
    3.2858    0.5021    0.0000 N   0  0  0  0  0  0  0  0  0  0  0  0
    2.6939    1.3169    0.0000 N   0  0  0  0  0  0  0  0  0  0  0  0
    3.0030    2.2679    0.0000 C   0  0  0  0  0  0  0  0  0  0  0  0
    3.9812    2.4757    0.0000 C   0  0  0  0  0  0  0  0  0  0  0  0
    4.2903    3.4268    0.0000 N   0  0  0  0  0  0  0  0  0  0  0  0
    5.2412    3.7377    0.0000 C   0  0  0  0  0  0  0  0  0  0  0  0
    5.2455    4.7377    0.0000 C   0  0  0  0  0  0  0  0  0  0  0  0
    4.2935    5.0488    0.0000 C   0  0  0  0  0  0  0  0  0  0  0  0
    3.7015    4.2408    0.0000 C   0  0  0  0  0  0  0  0  0  0  0  0
    0.8680   -0.4978    0.0000 C   0  0  0  0  0  0  0  0  0  0  0  0
  1  2  2  0
  2 15  1  0
  2  3  1  0
  3  4  2  0
  4  5  1  0
  5  6  1  0
  6  7  1  0
  7 12  1  0
  7  8  2  0
  8  9  1  0
  9 10  2  0
 10 11  1  0
 11 12  2  0
  4 13  1  0
 13 14  2  0
 14 15  1  0
 15 16  1  0
 16 31  1  0
 16 17  2  0
 17 18  1  0
 18 19  2  0
 19 23  1  0
 19 20  1  0
 20 21  1  0
 21 22  2  0
 22 23  1  0
 23 24  1  0
 24 25  1  0
 25 26  1  0
 26 30  1  0
 26 27  1  0
 27 28  1  0
 28 29  1  0
 29 30  1  0
 20 31  2  0
M  END
>  <SMILES>  (388) 
O=c1cc(OCc2ccccc2)ccn1-c1ccc2c(cnn2CCN2CCCC2)c1

>  <CollectionName>  (388) 
chembl

>  <LOG PLASMA PROTEIN BINDING (RAT) (% unbound)>  (388) 
1.07518185462

>  <Internal ID>  (388) 


>  <Source>  (388) 
AstraZeneca

$$$$
CHEMBL82663
     RDKit          2D

 31 33  0  0  0  0  0  0  0  0999 V2000
    0.8675   -1.4978    0.0000 O   0  0  0  0  0  0  0  0  0  0  0  0
    0.8680   -0.4978    0.0000 C   0  0  0  0  0  0  0  0  0  0  0  0
    0.0000    0.0000    0.0000 C   0  0  0  0  0  0  0  0  0  0  0  0
    0.0000    1.0058    0.0000 C   0  0  0  0  0  0  0  0  0  0  0  0
    0.8680    1.5138    0.0000 C   0  0  0  0  0  0  0  0  0  0  0  0
    0.8680    2.5138    0.0000 C   0  0  0  0  0  0  0  0  0  0  0  0
    1.7340    3.0138    0.0000 C   0  0  0  0  0  0  0  0  0  0  0  0
    1.7340    4.0138    0.0000 N   0  0  0  0  0  0  0  0  0  0  0  0
    2.6001    4.5138    0.0000 C   0  0  0  0  0  0  0  0  0  0  0  0
    2.6001    5.5138    0.0000 C   0  0  0  0  0  0  0  0  0  0  0  0
    3.4661    6.0138    0.0000 S   0  0  0  0  0  0  0  0  0  0  0  0
    3.9661    5.1478    0.0000 O   0  0  0  0  0  0  0  0  0  0  0  0
    2.9661    6.8798    0.0000 O   0  0  0  0  0  0  0  0  0  0  0  0
    4.3321    6.5138    0.0000 C   0  0  0  0  0  0  0  0  0  0  0  0
    4.3321    7.5138    0.0000 C   0  0  0  0  0  0  0  0  0  0  0  0
    5.1981    8.0138    0.0000 C   0  0  0  0  0  0  0  0  0  0  0  0
    5.1981    9.0138    0.0000 O   0  0  0  0  0  0  0  0  0  0  0  0
    6.0642    9.5138    0.0000 C   0  0  0  0  0  0  0  0  0  0  0  0
    6.0642   10.5138    0.0000 C   0  0  0  0  0  0  0  0  0  0  0  0
    6.9302   11.0138    0.0000 C   0  0  0  0  0  0  0  0  0  0  0  0
    6.9272   12.0190    0.0000 C   0  0  0  0  0  0  0  0  0  0  0  0
    7.7932   12.5191    0.0000 C   0  0  0  0  0  0  0  0  0  0  0  0
    8.6622   12.0241    0.0000 C   0  0  0  0  0  0  0  0  0  0  0  0
    8.6652   11.0189    0.0000 C   0  0  0  0  0  0  0  0  0  0  0  0
    7.7992   10.5087    0.0000 C   0  0  0  0  0  0  0  0  0  0  0  0
    1.7360    1.0058    0.0000 C   0  0  0  0  0  0  0  0  0  0  0  0
    2.6938    1.3169    0.0000 S   0  0  0  0  0  0  0  0  0  0  0  0
    3.2858    0.5023    0.0000 C   0  0  0  0  0  0  0  0  0  0  0  0
    4.2858    0.5024    0.0000 O   0  0  0  0  0  0  0  0  0  0  0  0
    2.6938   -0.3125    0.0000 N   0  0  0  0  0  0  0  0  0  0  0  0
    1.7360   -0.0012    0.0000 C   0  0  0  0  0  0  0  0  0  0  0  0
  1  2  1  0
  2 31  2  0
  2  3  1  0
  3  4  2  0
  4  5  1  0
  5  6  1  0
  6  7  1  0
  7  8  1  0
  8  9  1  0
  9 10  1  0
 10 11  1  0
 11 12  2  0
 11 13  2  0
 11 14  1  0
 14 15  1  0
 15 16  1  0
 16 17  1  0
 17 18  1  0
 18 19  1  0
 19 20  1  0
 20 25  1  0
 20 21  2  0
 21 22  1  0
 22 23  2  0
 23 24  1  0
 24 25  2  0
  5 26  2  0
 26 31  1  0
 26 27  1  0
 27 28  1  0
 28 29  1  0
 28 30  2  0
 30 31  1  0
M  END
>  <SMILES>  (389) 
O=S(=O)(CCCOCCc1ccccc1)CCNCCc1ccc(O)c2nc(O)sc12

>  <CollectionName>  (389) 
chembl

>  <LOG PLASMA PROTEIN BINDING (RAT) (% unbound)>  (389) 
0.894316062684

>  <Internal ID>  (389) 


>  <Source>  (389) 
AstraZeneca

$$$$
CHEMBL319111
     RDKit          2D

 30 34  0  0  0  0  0  0  0  0999 V2000
    4.2858    0.5024    0.0000 O   0  0  0  0  0  0  0  0  0  0  0  0
    3.2858    0.5023    0.0000 C   0  0  0  0  0  0  0  0  0  0  0  0
    2.6938    1.3169    0.0000 N   0  0  0  0  0  0  0  0  0  0  0  0
    3.0028    2.2680    0.0000 C   0  0  0  0  0  0  0  0  0  0  0  0
    2.3280    3.0130    0.0000 C   0  0  0  0  0  0  0  0  0  0  0  0
    2.6370    3.9641    0.0000 C   0  0  0  0  0  0  0  0  0  0  0  0
    3.6139    4.1777    0.0000 C   0  0  0  0  0  0  0  0  0  0  0  0
    4.2887    3.4327    0.0000 C   0  0  0  0  0  0  0  0  0  0  0  0
    3.9866    2.4741    0.0000 C   0  0  0  0  0  0  0  0  0  0  0  0
    1.7360    1.0058    0.0000 C   0  0  0  0  0  0  0  0  0  0  0  0
    0.8680    1.5138    0.0000 C   0  0  0  0  0  0  0  0  0  0  0  0
    0.0000    1.0058    0.0000 C   0  0  0  0  0  0  0  0  0  0  0  0
    0.0000    0.0000    0.0000 C   0  0  0  0  0  0  0  0  0  0  0  0
    0.8680   -0.4978    0.0000 C   0  0  0  0  0  0  0  0  0  0  0  0
    1.7360   -0.0012    0.0000 C   0  0  0  0  0  0  0  0  0  0  0  0
    2.6938   -0.3125    0.0000 C   0  0  0  0  0  0  0  0  0  0  0  0
    3.5598   -0.8125    0.0000 C   0  0  0  0  0  0  0  0  0  0  0  0
    5.0754    0.0624    0.0000 C   0  0  0  0  0  0  0  0  0  0  0  0
    5.9400   -0.4401    0.0000 C   0  0  0  0  0  0  0  0  0  0  0  0
    6.8105    0.0624    0.0000 C   0  0  0  0  0  0  0  0  0  0  0  0
    6.8165    1.0675    0.0000 N   0  0  0  0  0  0  0  0  0  0  0  0
    5.9431    1.5650    0.0000 C   0  0  0  0  0  0  0  0  0  0  0  0
    5.0725    1.0624    0.0000 C   0  0  0  0  0  0  0  0  0  0  0  0
    2.2870   -1.2260    0.0000 C   0  0  0  0  0  0  0  0  0  0  0  0
    2.8747   -2.0351    0.0000 C   0  0  0  0  0  0  0  0  0  0  0  0
    2.4653   -2.9474    0.0000 C   0  0  0  0  0  0  0  0  0  0  0  0
    3.0561   -3.7607    0.0000 C   0  0  0  0  0  0  0  0  0  0  0  0
    4.0563   -3.6616    0.0000 N   0  0  0  0  0  0  0  0  0  0  0  0
    4.4598   -2.7410    0.0000 C   0  0  0  0  0  0  0  0  0  0  0  0
    3.8690   -1.9277    0.0000 C   0  0  0  0  0  0  0  0  0  0  0  0
  1  2  2  0
  2 16  1  0
  2  3  1  0
  3  4  1  0
  4  9  1  0
  4  5  2  0
  5  6  1  0
  6  7  2  0
  7  8  1  0
  8  9  2  0
  3 10  1  0
 10 15  2  0
 10 11  1  0
 11 12  2  0
 12 13  1  0
 13 14  2  0
 14 15  1  0
 15 16  1  0
 16 17  1  0
 17 18  1  0
 18 23  1  0
 18 19  2  0
 19 20  1  0
 20 21  2  0
 21 22  1  0
 22 23  2  0
 16 24  1  0
 24 25  1  0
 25 30  1  0
 25 26  2  0
 26 27  1  0
 27 28  2  0
 28 29  1  0
 29 30  2  0
M  END
>  <SMILES>  (390) 
O=C1N(c2ccccc2)c2ccccc2C1(Cc1ccncc1)Cc1ccncc1

>  <CollectionName>  (390) 
chembl

>  <LOG PLASMA PROTEIN BINDING (RAT) (% unbound)>  (390) 
1.00389116624

>  <Internal ID>  (390) 


>  <Source>  (390) 
AstraZeneca

$$$$
CHEMBL1231206
     RDKit          2D

 27 31  0  0  1  0  0  0  0  0999 V2000
   -8.1575    0.2668    0.0000 C   0  0  0  0  0  0  0  0  0  0  0  0
   -7.3476   -0.3198    0.0000 C   0  0  0  0  0  0  0  0  0  0  0  0
   -6.4677    0.1554    0.0000 C   0  0  0  0  0  0  0  0  0  0  0  0
   -5.5476   -0.2363    0.0000 N   0  0  0  0  0  0  0  0  0  0  0  0
   -5.2802   -1.1999    0.0000 C   0  0  0  0  0  0  0  0  0  0  0  0
   -5.8668   -2.0098    0.0000 C   0  0  0  0  0  0  0  0  0  0  0  0
   -5.2779   -2.8179    0.0000 S   0  0  0  0  0  0  0  0  0  0  0  0
   -4.3272   -2.5075    0.0000 C   0  0  0  0  0  0  0  0  0  0  0  0
   -3.4605   -3.0063    0.0000 C   0  0  0  0  0  0  0  0  0  0  0  0
   -2.5952   -2.5050    0.0000 C   0  0  0  0  0  0  0  0  0  0  0  0
   -2.5966   -1.5050    0.0000 C   0  0  0  0  0  0  0  0  0  0  0  0
   -1.7313   -1.0038    0.0000 N   0  0  0  0  0  0  0  0  0  0  0  0
   -1.7328   -0.0038    0.0000 C   0  0  0  0  0  0  0  0  0  0  0  0
   -2.5995    0.4950    0.0000 C   0  0  0  0  0  0  0  0  0  0  0  0
   -3.4648   -0.0063    0.0000 C   0  0  0  0  0  0  0  0  0  0  0  0
   -3.4634   -1.0063    0.0000 C   0  0  0  0  0  0  0  0  0  0  0  0
   -4.3287   -1.5075    0.0000 C   0  0  0  0  0  0  0  0  0  0  0  0
   -0.8675    0.4975    0.0000 C   0  0  0  0  0  0  0  0  0  0  0  0
    0.0000    0.0000    0.0000 C   0  0  0  0  0  0  0  0  0  0  0  0
    0.8675    0.4975    0.0000 C   0  0  0  0  0  0  0  0  0  0  0  0
    0.8675    1.5027    0.0000 C   0  0  0  0  0  0  0  0  0  0  0  0
    1.7350    2.0001    0.0000 C   0  0  0  0  0  0  0  0  0  0  0  0
    0.0000    2.0104    0.0000 N   0  0  0  0  0  0  0  0  0  0  0  0
   -0.8675    1.5027    0.0000 C   0  0  0  0  0  0  0  0  0  0  0  0
   -6.8657   -2.0561    0.0000 C   0  0  0  0  0  0  0  0  0  0  0  0
   -7.2574   -2.9762    0.0000 O   0  0  0  0  0  0  0  0  0  0  0  0
   -7.5248   -1.3040    0.0000 N   0  0  0  0  0  0  0  0  0  0  0  0
  2  1  1  6
  2 27  1  0
  2  3  1  0
  3  4  1  0
  4  5  1  0
  5 17  1  0
  5  6  2  0
  6  7  1  0
  7  8  1  0
  8 17  2  0
  8  9  1  0
  9 10  2  0
 10 11  1  0
 11 16  2  0
 11 12  1  0
 12 13  2  0
 13 14  1  0
 14 15  2  0
 15 16  1  0
 16 17  1  0
 13 18  1  0
 18 24  1  0
 18 19  2  0
 19 20  1  0
 20 21  2  0
 21 22  1  0
 21 23  1  0
 23 24  2  0
  6 25  1  0
 25 26  2  0
 25 27  1  0
M  END
>  <SMILES>  (391) 
Cc1ccc(-c2ccc3c(ccc4sc5c(c43)NC[C@@H](C)NC5=O)n2)cn1

>  <CollectionName>  (391) 
chembl

>  <LOG PLASMA PROTEIN BINDING (RAT) (% unbound)>  (391) 
0.0569048513365

>  <Internal ID>  (391) 


>  <Source>  (391) 
AstraZeneca

$$$$
CHEMBL1442311
     RDKit          2D

 35 38  0  0  0  0  0  0  0  0999 V2000
    0.0140   -6.0146    0.0000 C   0  0  0  0  0  0  0  0  0  0  0  0
   -0.8541   -5.5183    0.0000 N   0  0  0  0  0  0  0  0  0  0  0  0
   -1.7180   -6.0220    0.0000 C   0  0  0  0  0  0  0  0  0  0  0  0
   -0.8584   -4.5183    0.0000 C   0  0  0  0  0  0  0  0  0  0  0  0
   -1.7266   -4.0220    0.0000 O   0  0  0  0  0  0  0  0  0  0  0  0
    0.0055   -4.0146    0.0000 C   0  0  0  0  0  0  0  0  0  0  0  0
    0.8744   -4.5096    0.0000 C   0  0  0  0  0  0  0  0  0  0  0  0
    1.7404   -4.0097    0.0000 C   0  0  0  0  0  0  0  0  0  0  0  0
    1.7376   -3.0045    0.0000 C   0  0  0  0  0  0  0  0  0  0  0  0
    2.6037   -2.5046    0.0000 N   0  0  0  0  0  0  0  0  0  0  0  0
    2.6038   -1.5046    0.0000 C   0  0  0  0  0  0  0  0  0  0  0  0
    3.4748   -1.0035    0.0000 N   0  0  0  0  0  0  0  0  0  0  0  0
    3.4735    0.0022    0.0000 N   0  0  0  0  0  0  0  0  0  0  0  0
    2.6012    0.5067    0.0000 C   0  0  0  0  0  0  0  0  0  0  0  0
    2.5985    1.5067    0.0000 C   0  0  0  0  0  0  0  0  0  0  0  0
    3.4692    2.0091    0.0000 C   0  0  0  0  0  0  0  0  0  0  0  0
    3.4666    3.0091    0.0000 C   0  0  0  0  0  0  0  0  0  0  0  0
    2.6021    3.5119    0.0000 C   0  0  0  0  0  0  0  0  0  0  0  0
    2.6038    4.5118    0.0000 C   0  0  0  0  0  0  0  0  0  0  0  0
    1.7314    3.0095    0.0000 C   0  0  0  0  0  0  0  0  0  0  0  0
    1.7252    2.0044    0.0000 C   0  0  0  0  0  0  0  0  0  0  0  0
    0.8670    3.5123    0.0000 S   0  0  0  0  0  0  0  0  0  0  0  0
    0.3642    2.6479    0.0000 O   0  0  0  0  0  0  0  0  0  0  0  0
    1.3698    4.3767    0.0000 O   0  0  0  0  0  0  0  0  0  0  0  0
    0.0026    4.0151    0.0000 N   0  0  0  0  0  0  0  0  0  0  0  0
   -0.8650    3.5179    0.0000 C   0  0  0  0  0  0  0  0  0  0  0  0
    0.0059    5.0151    0.0000 C   0  0  0  0  0  0  0  0  0  0  0  0
    1.7358    0.0000    0.0000 C   0  0  0  0  0  0  0  0  0  0  0  0
    0.8679    0.5078    0.0000 C   0  0  0  0  0  0  0  0  0  0  0  0
    0.0000    0.0000    0.0000 C   0  0  0  0  0  0  0  0  0  0  0  0
    0.0000   -1.0057    0.0000 C   0  0  0  0  0  0  0  0  0  0  0  0
    0.8679   -1.5035    0.0000 C   0  0  0  0  0  0  0  0  0  0  0  0
    1.7371   -1.0057    0.0000 C   0  0  0  0  0  0  0  0  0  0  0  0
    0.8687   -2.4993    0.0000 C   0  0  0  0  0  0  0  0  0  0  0  0
    0.0026   -3.0094    0.0000 C   0  0  0  0  0  0  0  0  0  0  0  0
  1  2  1  0
  2  3  1  0
  2  4  1  0
  4  5  2  0
  4  6  1  0
  6 35  2  0
  6  7  1  0
  7  8  2  0
  8  9  1  0
  9 10  1  0
 10 11  1  0
 11 33  1  0
 11 12  2  0
 12 13  1  0
 13 14  2  0
 14 15  1  0
 15 21  1  0
 15 16  2  0
 16 17  1  0
 17 18  2  0
 18 19  1  0
 18 20  1  0
 20 21  2  0
 20 22  1  0
 22 23  2  0
 22 24  2  0
 22 25  1  0
 25 26  1  0
 25 27  1  0
 14 28  1  0
 28 33  2  0
 28 29  1  0
 29 30  2  0
 30 31  1  0
 31 32  2  0
 32 33  1  0
  9 34  2  0
 34 35  1  0
M  END
>  <SMILES>  (392) 
Cc1ccc(-c2nnc(Nc3ccc(C(=O)N(C)C)cc3)c3ccccc23)cc1S(=O)(=O)N(C)C

>  <CollectionName>  (392) 
chembl

>  <LOG PLASMA PROTEIN BINDING (RAT) (% unbound)>  (392) 
0.320146286111

>  <Internal ID>  (392) 


>  <Source>  (392) 
AstraZeneca

$$$$
CHEMBL1201753
     RDKit          2D

 31 34  0  0  1  0  0  0  0  0999 V2000
    7.8021   -1.5316    0.0000 O   0  0  0  0  0  0  0  0  0  0  0  0
    7.8078   -0.5316    0.0000 C   0  0  0  0  0  0  0  0  0  0  0  0
    6.9445   -0.0267    0.0000 C   0  0  0  0  0  0  0  0  0  0  0  0
    6.0757   -0.5219    0.0000 C   0  0  0  0  0  0  0  0  0  0  0  0
    6.0701   -1.5219    0.0000 O   0  0  0  0  0  0  0  0  0  0  0  0
    5.2125   -0.0170    0.0000 C   0  0  0  0  0  0  0  0  0  0  0  0
    4.3437   -0.5122    0.0000 C   0  0  0  0  0  0  0  0  0  0  0  0
    3.4805   -0.0073    0.0000 C   0  0  0  0  0  0  0  0  0  0  0  0
    3.4848    1.0014    0.0000 C   0  0  0  0  0  0  0  0  0  0  0  0
    2.6125    1.5125    0.0000 N   0  0  0  0  0  0  0  0  0  0  0  0
    1.7414    1.0089    0.0000 C   0  0  0  0  0  0  0  0  0  0  0  0
    0.8707    1.5185    0.0000 C   0  0  0  0  0  0  0  0  0  0  0  0
    0.0000    1.0089    0.0000 C   0  0  0  0  0  0  0  0  0  0  0  0
    0.0000    0.0000    0.0000 C   0  0  0  0  0  0  0  0  0  0  0  0
    0.8707   -0.4993    0.0000 C   0  0  0  0  0  0  0  0  0  0  0  0
    1.7371    0.0000    0.0000 C   0  0  0  0  0  0  0  0  0  0  0  0
    2.6039   -0.5053    0.0000 C   0  0  0  0  0  0  0  0  0  0  0  0
    2.5983   -1.5053    0.0000 C   0  0  0  0  0  0  0  0  0  0  0  0
    1.7302   -2.0017    0.0000 C   0  0  0  0  0  0  0  0  0  0  0  0
    1.7203   -3.0017    0.0000 C   0  0  0  0  0  0  0  0  0  0  0  0
    2.5873   -3.5104    0.0000 C   0  0  0  0  0  0  0  0  0  0  0  0
    2.5773   -4.5104    0.0000 F   0  0  0  0  0  0  0  0  0  0  0  0
    3.4642   -3.0191    0.0000 C   0  0  0  0  0  0  0  0  0  0  0  0
    3.4653   -2.0140    0.0000 C   0  0  0  0  0  0  0  0  0  0  0  0
    4.3535    1.4968    0.0000 C   0  0  0  0  0  0  0  0  0  0  0  0
    5.3554    1.4925    0.0000 C   0  0  0  0  0  0  0  0  0  0  0  0
    4.8600    2.3612    0.0000 C   0  0  0  0  0  0  0  0  0  0  0  0
    8.6766   -0.0365    0.0000 C   0  0  0  0  0  0  0  0  0  0  0  0
    9.5398   -0.5413    0.0000 C   0  0  0  0  0  0  0  0  0  0  0  0
    9.5342   -1.5413    0.0000 O   0  0  0  0  0  0  0  0  0  0  0  0
   10.4086   -0.0462    0.0000 O   0  0  0  0  0  0  0  0  0  0  0  0
  2  1  1  6
  2  3  1  0
  3  4  1  0
  4  5  1  6
  4  6  1  0
  6  7  2  0
  7  8  1  0
  8 17  2  0
  8  9  1  0
  9 10  2  0
 10 11  1  0
 11 16  2  0
 11 12  1  0
 12 13  2  0
 13 14  1  0
 14 15  2  0
 15 16  1  0
 16 17  1  0
 17 18  1  0
 18 24  1  0
 18 19  2  0
 19 20  1  0
 20 21  2  0
 21 22  1  0
 21 23  1  0
 23 24  2  0
  9 25  1  0
 25 27  1  0
 25 26  1  0
 26 27  1  0
  2 28  1  0
 28 29  1  0
 29 30  2  0
 29 31  1  0
M  END
>  <SMILES>  (393) 
O=C(O)C[C@H](O)C[C@H](O)/C=C/c1c(C2CC2)nc2ccccc2c1-c1ccc(F)cc1

>  <CollectionName>  (393) 
chembl

>  <LOG PLASMA PROTEIN BINDING (RAT) (% unbound)>  (393) 
-0.193820026016

>  <Internal ID>  (393) 


>  <Source>  (393) 
AstraZeneca

$$$$
CHEMBL2062774
     RDKit          2D

 28 31  0  0  0  0  0  0  0  0999 V2000
    4.2897   -2.4228    0.0000 C   0  0  0  0  0  0  0  0  0  0  0  0
    3.9808   -1.4717    0.0000 C   0  0  0  0  0  0  0  0  0  0  0  0
    3.0027   -1.2637    0.0000 O   0  0  0  0  0  0  0  0  0  0  0  0
    2.6938   -0.3126    0.0000 C   0  0  0  0  0  0  0  0  0  0  0  0
    3.2858    0.5021    0.0000 N   0  0  0  0  0  0  0  0  0  0  0  0
    2.6939    1.3169    0.0000 O   0  0  0  0  0  0  0  0  0  0  0  0
    1.7360    1.0058    0.0000 C   0  0  0  0  0  0  0  0  0  0  0  0
    0.8680    1.5138    0.0000 C   0  0  0  0  0  0  0  0  0  0  0  0
   -0.0000    1.0058    0.0000 C   0  0  0  0  0  0  0  0  0  0  0  0
   -0.8675    1.5032    0.0000 O   0  0  0  0  0  0  0  0  0  0  0  0
   -1.7320    1.0007    0.0000 C   0  0  0  0  0  0  0  0  0  0  0  0
   -2.5995    1.4981    0.0000 C   0  0  0  0  0  0  0  0  0  0  0  0
   -3.4641    0.9956    0.0000 C   0  0  0  0  0  0  0  0  0  0  0  0
   -3.4582   -0.0044    0.0000 C   0  0  0  0  0  0  0  0  0  0  0  0
   -4.3273   -0.5096    0.0000 C   0  0  0  0  0  0  0  0  0  0  0  0
   -5.2022   -0.0148    0.0000 N   0  0  0  0  0  0  0  0  0  0  0  0
   -5.1992    0.9904    0.0000 C   0  0  0  0  0  0  0  0  0  0  0  0
   -4.3302    1.4955    0.0000 C   0  0  0  0  0  0  0  0  0  0  0  0
   -6.0667   -0.5173    0.0000 C   0  0  0  0  0  0  0  0  0  0  0  0
   -6.0652   -1.5174    0.0000 C   0  0  0  0  0  0  0  0  0  0  0  0
   -6.9276   -2.0237    0.0000 C   0  0  0  0  0  0  0  0  0  0  0  0
   -7.8003   -1.5249    0.0000 C   0  0  0  0  0  0  0  0  0  0  0  0
   -8.6626   -2.0313    0.0000 C   0  0  0  0  0  0  0  0  0  0  0  0
   -7.8107   -0.5198    0.0000 N   0  0  0  0  0  0  0  0  0  0  0  0
   -6.9394   -0.0186    0.0000 N   0  0  0  0  0  0  0  0  0  0  0  0
    0.0000    0.0000    0.0000 C   0  0  0  0  0  0  0  0  0  0  0  0
    0.8680   -0.4978    0.0000 C   0  0  0  0  0  0  0  0  0  0  0  0
    1.7360   -0.0012    0.0000 C   0  0  0  0  0  0  0  0  0  0  0  0
  1  2  1  0
  2  3  1  0
  3  4  1  0
  4 28  1  0
  4  5  2  0
  5  6  1  0
  6  7  1  0
  7 28  2  0
  7  8  1  0
  8  9  2  0
  9 10  1  0
 10 11  1  0
 11 12  1  0
 12 13  1  0
 13 18  1  0
 13 14  1  0
 14 15  1  0
 15 16  1  0
 16 17  1  0
 17 18  1  0
 16 19  1  0
 19 25  1  0
 19 20  2  0
 20 21  1  0
 21 22  2  0
 22 23  1  0
 22 24  1  0
 24 25  2  0
  9 26  1  0
 26 27  2  0
 27 28  1  0
M  END
>  <SMILES>  (394) 
CCOc1noc2cc(OCCC3CCN(c4ccc(C)nn4)CC3)ccc12

>  <CollectionName>  (394) 
chembl

>  <LOG PLASMA PROTEIN BINDING (RAT) (% unbound)>  (394) 
-0.823908740944

>  <Internal ID>  (394) 


>  <Source>  (394) 
AstraZeneca

$$$$
CHEMBL2071592
     RDKit          2D

 23 24  0  0  1  0  0  0  0  0999 V2000
    5.2020    1.9950    0.0000 C   0  0  0  0  0  0  0  0  0  0  0  0
    4.3375    2.4975    0.0000 C   0  0  0  0  0  0  0  0  0  0  0  0
    3.8349    1.6330    0.0000 C   0  0  0  0  0  0  0  0  0  0  0  0
    4.8400    3.3621    0.0000 C   0  0  0  0  0  0  0  0  0  0  0  0
    3.4729    3.0001    0.0000 C   0  0  0  0  0  0  0  0  0  0  0  0
    2.6054    2.5026    0.0000 N   0  0  0  0  0  0  0  0  0  0  0  0
    2.6025    1.5026    0.0000 C   0  0  0  0  0  0  0  0  0  0  0  0
    3.4670    1.0001    0.0000 O   0  0  0  0  0  0  0  0  0  0  0  0
    1.7350    1.0052    0.0000 C   0  0  0  0  0  0  0  0  0  0  0  0
    1.7350   -0.0000    0.0000 C   0  0  0  0  0  0  0  0  0  0  0  0
    0.8675   -0.4975    0.0000 C   0  0  0  0  0  0  0  0  0  0  0  0
    0.0000    0.0000    0.0000 C   0  0  0  0  0  0  0  0  0  0  0  0
    0.0000    1.0052    0.0000 C   0  0  0  0  0  0  0  0  0  0  0  0
    0.8675    1.5129    0.0000 C   0  0  0  0  0  0  0  0  0  0  0  0
    3.4759    4.0001    0.0000 C   0  0  0  0  0  0  0  0  0  0  0  0
    4.3434    4.4975    0.0000 O   0  0  0  0  0  0  0  0  0  0  0  0
    2.6114    4.5026    0.0000 C   0  0  0  0  0  0  0  0  0  0  0  0
    1.7431    4.0064    0.0000 C   0  0  0  0  0  0  0  0  0  0  0  0
    0.8764    4.5052    0.0000 C   0  0  0  0  0  0  0  0  0  0  0  0
    0.8779    5.5104    0.0000 C   0  0  0  0  0  0  0  0  0  0  0  0
    0.0111    6.0092    0.0000 Cl  0  0  0  0  0  0  0  0  0  0  0  0
    1.7461    6.0168    0.0000 C   0  0  0  0  0  0  0  0  0  0  0  0
    2.6129    5.5078    0.0000 C   0  0  0  0  0  0  0  0  0  0  0  0
  1  2  1  0
  2  3  1  0
  2  4  1  0
  2  5  1  0
  5  6  1  0
  6  7  1  0
  7  8  2  0
  7  9  1  0
  9 14  1  0
  9 10  2  0
 10 11  1  0
 11 12  2  0
 12 13  1  0
 13 14  2  0
  5 15  1  0
 15 16  2  0
 15 17  1  0
 17 23  1  0
 17 18  2  0
 18 19  1  0
 19 20  2  0
 20 21  1  0
 20 22  1  0
 22 23  2  0
M  END
>  <SMILES>  (395) 
CC(C)(C)C(NC(=O)c1ccccc1)C(=O)c1ccc(Cl)cc1

>  <CollectionName>  (395) 
chembl

>  <LOG PLASMA PROTEIN BINDING (RAT) (% unbound)>  (395) 
-0.0915149811214

>  <Internal ID>  (395) 


>  <Source>  (395) 
AstraZeneca

$$$$
CHEMBL2088414
     RDKit          2D

 22 24  0  0  0  0  0  0  0  0999 V2000
    4.7857    1.3684    0.0000 O   0  0  0  0  0  0  0  0  0  0  0  0
    4.2858    0.5024    0.0000 C   0  0  0  0  0  0  0  0  0  0  0  0
    3.2858    0.5023    0.0000 C   0  0  0  0  0  0  0  0  0  0  0  0
    2.6938   -0.3125    0.0000 N   0  0  0  0  0  0  0  0  0  0  0  0
    1.7360   -0.0012    0.0000 C   0  0  0  0  0  0  0  0  0  0  0  0
    0.8680   -0.4978    0.0000 C   0  0  0  0  0  0  0  0  0  0  0  0
    0.0000    0.0000    0.0000 C   0  0  0  0  0  0  0  0  0  0  0  0
   -0.8653   -0.5013    0.0000 N   0  0  0  0  0  0  0  0  0  0  0  0
   -0.8639   -1.5013    0.0000 S   0  0  0  0  0  0  0  0  0  0  0  0
   -1.8639   -1.5027    0.0000 O   0  0  0  0  0  0  0  0  0  0  0  0
    0.1361   -1.4998    0.0000 O   0  0  0  0  0  0  0  0  0  0  0  0
   -0.8624   -2.5012    0.0000 C   0  0  0  0  0  0  0  0  0  0  0  0
   -1.7270   -3.0038    0.0000 C   0  0  0  0  0  0  0  0  0  0  0  0
   -1.7299   -4.0038    0.0000 C   0  0  0  0  0  0  0  0  0  0  0  0
   -0.8594   -4.5064    0.0000 C   0  0  0  0  0  0  0  0  0  0  0  0
   -0.8623   -5.5064    0.0000 Br  0  0  0  0  0  0  0  0  0  0  0  0
    0.0140   -4.0090    0.0000 C   0  0  0  0  0  0  0  0  0  0  0  0
    0.0081   -3.0039    0.0000 C   0  0  0  0  0  0  0  0  0  0  0  0
    0.0000    1.0058    0.0000 C   0  0  0  0  0  0  0  0  0  0  0  0
    0.8680    1.5138    0.0000 C   0  0  0  0  0  0  0  0  0  0  0  0
    1.7360    1.0058    0.0000 C   0  0  0  0  0  0  0  0  0  0  0  0
    2.6938    1.3169    0.0000 S   0  0  0  0  0  0  0  0  0  0  0  0
  1  2  1  0
  2  3  1  0
  3 22  1  0
  3  4  2  0
  4  5  1  0
  5 21  2  0
  5  6  1  0
  6  7  2  0
  7  8  1  0
  8  9  1  0
  9 10  2  0
  9 11  2  0
  9 12  1  0
 12 18  1  0
 12 13  2  0
 13 14  1  0
 14 15  2  0
 15 16  1  0
 15 17  1  0
 17 18  2  0
  7 19  1  0
 19 20  2  0
 20 21  1  0
 21 22  1  0
M  END
>  <SMILES>  (396) 
O=S(=O)(Nc1ccc2sc(CO)nc2c1)c1ccc(Br)cc1

>  <CollectionName>  (396) 
chembl

>  <LOG PLASMA PROTEIN BINDING (RAT) (% unbound)>  (396) 
-0.744727494897

>  <Internal ID>  (396) 


>  <Source>  (396) 
AstraZeneca

$$$$
CHEMBL282479
     RDKit          2D

 23 25  0  0  1  0  0  0  0  0999 V2000
    3.3395   -2.6914    0.0000 O   0  0  0  0  0  0  0  0  0  0  0  0
    4.2063   -2.1927    0.0000 C   0  0  0  0  0  0  0  0  0  0  0  0
    5.0723   -2.6928    0.0000 C   0  0  0  0  0  0  0  0  0  0  0  0
    5.9413   -2.1979    0.0000 C   0  0  0  0  0  0  0  0  0  0  0  0
    5.9443   -1.1927    0.0000 C   0  0  0  0  0  0  0  0  0  0  0  0
    6.8133   -0.6979    0.0000 Cl  0  0  0  0  0  0  0  0  0  0  0  0
    5.0783   -0.6824    0.0000 C   0  0  0  0  0  0  0  0  0  0  0  0
    4.2093   -1.1876    0.0000 C   0  0  0  0  0  0  0  0  0  0  0  0
    2.6938   -0.3125    0.0000 C   0  0  0  0  0  0  0  0  0  0  0  0
    2.2870   -1.2260    0.0000 O   0  0  0  0  0  0  0  0  0  0  0  0
    3.2858    0.5023    0.0000 C   0  0  0  0  0  0  0  0  0  0  0  0
    4.2858    0.5024    0.0000 O   0  0  0  0  0  0  0  0  0  0  0  0
    2.6938    1.3169    0.0000 N   0  0  0  0  0  0  0  0  0  0  0  0
    1.7360    1.0058    0.0000 C   0  0  0  0  0  0  0  0  0  0  0  0
    0.8680    1.5138    0.0000 C   0  0  0  0  0  0  0  0  0  0  0  0
   -0.0000    1.0058    0.0000 C   0  0  0  0  0  0  0  0  0  0  0  0
    0.0000    0.0000    0.0000 C   0  0  0  0  0  0  0  0  0  0  0  0
    0.8680   -0.4978    0.0000 C   0  0  0  0  0  0  0  0  0  0  0  0
    1.7360   -0.0012    0.0000 C   0  0  0  0  0  0  0  0  0  0  0  0
   -0.8675    1.5032    0.0000 C   0  0  0  0  0  0  0  0  0  0  0  0
   -1.3649    0.6357    0.0000 F   0  0  0  0  0  0  0  0  0  0  0  0
   -0.3701    2.3707    0.0000 F   0  0  0  0  0  0  0  0  0  0  0  0
   -1.7350    2.0007    0.0000 F   0  0  0  0  0  0  0  0  0  0  0  0
  1  2  1  0
  2  8  2  0
  2  3  1  0
  3  4  2  0
  4  5  1  0
  5  6  1  0
  5  7  2  0
  7  8  1  0
  8  9  1  0
  9 19  1  0
  9 10  1  0
  9 11  1  0
 11 12  2  0
 11 13  1  0
 13 14  1  0
 14 19  2  0
 14 15  1  0
 15 16  2  0
 16 17  1  0
 17 18  2  0
 18 19  1  0
 16 20  1  0
 20 21  1  0
 20 22  1  0
 20 23  1  0
M  END
>  <SMILES>  (397) 
O=C1Nc2cc(C(F)(F)F)ccc2C1(O)c1cc(Cl)ccc1O

>  <CollectionName>  (397) 
chembl

>  <LOG PLASMA PROTEIN BINDING (RAT) (% unbound)>  (397) 
0.0453229787867

>  <Internal ID>  (397) 


>  <Source>  (397) 
AstraZeneca

$$$$
CHEMBL1092240
     RDKit          2D

 34 38  0  0  0  0  0  0  0  0999 V2000
    0.0125    5.0119    0.0000 O   0  0  0  0  0  0  0  0  0  0  0  0
    0.0140    6.0119    0.0000 N   0  0  0  0  0  0  0  0  0  0  0  0
   -0.8512    6.5132    0.0000 O   0  0  0  0  0  0  0  0  0  0  0  0
    0.8808    6.5106    0.0000 C   0  0  0  0  0  0  0  0  0  0  0  0
    0.8838    7.5158    0.0000 C   0  0  0  0  0  0  0  0  0  0  0  0
    0.0177    8.0158    0.0000 N   0  0  0  0  0  0  0  0  0  0  0  0
    0.0177    9.0158    0.0000 C   0  0  0  0  0  0  0  0  0  0  0  0
    0.8831    9.5170    0.0000 C   0  0  0  0  0  0  0  0  0  0  0  0
    0.8874   10.5171    0.0000 C   0  0  0  0  0  0  0  0  0  0  0  0
    0.0176   11.0209    0.0000 C   0  0  0  0  0  0  0  0  0  0  0  0
   -0.8565   10.5248    0.0000 C   0  0  0  0  0  0  0  0  0  0  0  0
   -0.8521    9.5196    0.0000 C   0  0  0  0  0  0  0  0  0  0  0  0
    0.0220   12.0209    0.0000 N   0  0  0  0  0  0  0  0  0  0  0  0
    0.8328   12.6069    0.0000 C   0  0  0  0  0  0  0  0  0  0  0  0
    0.5320   13.5605    0.0000 N   0  0  0  0  0  0  0  0  0  0  0  0
   -0.4695   13.5665    0.0000 C   0  0  0  0  0  0  0  0  0  0  0  0
   -0.7870   12.6165    0.0000 N   0  0  0  0  0  0  0  0  0  0  0  0
    1.7528    8.0209    0.0000 N   0  0  0  0  0  0  0  0  0  0  0  0
    2.6188    7.5107    0.0000 C   0  0  0  0  0  0  0  0  0  0  0  0
    2.6158    6.5055    0.0000 N   0  0  0  0  0  0  0  0  0  0  0  0
    1.7468    6.0105    0.0000 C   0  0  0  0  0  0  0  0  0  0  0  0
    1.7439    5.0105    0.0000 N   0  0  0  0  0  0  0  0  0  0  0  0
    0.8749    4.5054    0.0000 C   0  0  0  0  0  0  0  0  0  0  0  0
    0.8719    3.5002    0.0000 C   0  0  0  0  0  0  0  0  0  0  0  0
    1.7379    3.0001    0.0000 C   0  0  0  0  0  0  0  0  0  0  0  0
    2.6069    3.4951    0.0000 C   0  0  0  0  0  0  0  0  0  0  0  0
    2.6099    4.5003    0.0000 C   0  0  0  0  0  0  0  0  0  0  0  0
    1.7350    2.0001    0.0000 S   0  0  0  0  0  0  0  0  0  0  0  0
    0.8675    1.5027    0.0000 C   0  0  0  0  0  0  0  0  0  0  0  0
    0.8675    0.4975    0.0000 C   0  0  0  0  0  0  0  0  0  0  0  0
    0.0000    0.0000    0.0000 C   0  0  0  0  0  0  0  0  0  0  0  0
   -0.8675    0.4975    0.0000 C   0  0  0  0  0  0  0  0  0  0  0  0
   -0.8675    1.5027    0.0000 C   0  0  0  0  0  0  0  0  0  0  0  0
   -0.0000    2.0104    0.0000 N   0  0  0  0  0  0  0  0  0  0  0  0
  1  2  1  0
  2  3  2  0
  2  4  1  0
  4 21  2  0
  4  5  1  0
  5  6  1  0
  6  7  1  0
  7 12  1  0
  7  8  2  0
  8  9  1  0
  9 10  2  0
 10 11  1  0
 11 12  2  0
 10 13  1  0
 13 17  1  0
 13 14  1  0
 14 15  2  0
 15 16  1  0
 16 17  2  0
  5 18  2  0
 18 19  1  0
 19 20  2  0
 20 21  1  0
 21 22  1  0
 22 27  1  0
 22 23  1  0
 23 24  1  0
 24 25  1  0
 25 26  1  0
 26 27  1  0
 25 28  1  0
 28 29  1  0
 29 34  1  0
 29 30  2  0
 30 31  1  0
 31 32  2  0
 32 33  1  0
 33 34  2  0
M  CHG  2   1  -1   2   1
M  END
>  <SMILES>  (398) 
O=[N+]([O-])c1c(Nc2ccc(-n3cncn3)cc2)ncnc1N1CCC(Sc2ccccn2)CC1

>  <CollectionName>  (398) 
chembl

>  <LOG PLASMA PROTEIN BINDING (RAT) (% unbound)>  (398) 
-0.537602002101

>  <Internal ID>  (398) 


>  <Source>  (398) 
AstraZeneca

$$$$
CHEMBL35
     RDKit          2D

 21 22  0  0  0  0  0  0  0  0999 V2000
    7.2419    3.7604    0.0000 N   0  0  0  0  0  0  0  0  0  0  0  0
    6.2891    3.4569    0.0000 S   0  0  0  0  0  0  0  0  0  0  0  0
    5.9856    4.4098    0.0000 O   0  0  0  0  0  0  0  0  0  0  0  0
    6.5925    2.5041    0.0000 O   0  0  0  0  0  0  0  0  0  0  0  0
    5.3362    3.1535    0.0000 C   0  0  0  0  0  0  0  0  0  0  0  0
    5.1212    2.1768    0.0000 C   0  0  0  0  0  0  0  0  0  0  0  0
    4.1697    1.8692    0.0000 C   0  0  0  0  0  0  0  0  0  0  0  0
    3.9589    0.8917    0.0000 C   0  0  0  0  0  0  0  0  0  0  0  0
    3.0069    0.5854    0.0000 O   0  0  0  0  0  0  0  0  0  0  0  0
    4.7001    0.2204    0.0000 O   0  0  0  0  0  0  0  0  0  0  0  0
    3.4256    2.5451    0.0000 C   0  0  0  0  0  0  0  0  0  0  0  0
    2.4741    2.2374    0.0000 N   0  0  0  0  0  0  0  0  0  0  0  0
    2.2648    1.2596    0.0000 C   0  0  0  0  0  0  0  0  0  0  0  0
    1.3133    0.9519    0.0000 C   0  0  0  0  0  0  0  0  0  0  0  0
    0.5008    1.5428    0.0000 O   0  0  0  0  0  0  0  0  0  0  0  0
   -0.3065    0.9519    0.0000 C   0  0  0  0  0  0  0  0  0  0  0  0
    0.0000    0.0000    0.0000 C   0  0  0  0  0  0  0  0  0  0  0  0
    1.0015    0.0000    0.0000 C   0  0  0  0  0  0  0  0  0  0  0  0
    3.6331    3.5286    0.0000 C   0  0  0  0  0  0  0  0  0  0  0  0
    4.5922    3.8293    0.0000 C   0  0  0  0  0  0  0  0  0  0  0  0
    4.8072    4.8059    0.0000 Cl  0  0  0  0  0  0  0  0  0  0  0  0
  1  2  1  0
  2  3  2  0
  2  4  2  0
  2  5  1  0
  5 20  2  0
  5  6  1  0
  6  7  2  0
  7  8  1  0
  8  9  2  0
  8 10  1  0
  7 11  1  0
 11 12  1  0
 12 13  1  0
 13 14  1  0
 14 18  2  0
 14 15  1  0
 15 16  1  0
 16 17  2  0
 17 18  1  0
 11 19  2  0
 19 20  1  0
 20 21  1  0
M  END
>  <SMILES>  (399) 
NS(=O)(=O)c1cc(C(=O)O)c(NCc2ccco2)cc1Cl

>  <CollectionName>  (399) 
chembl

>  <LOG PLASMA PROTEIN BINDING (RAT) (% unbound)>  (399) 
0.311753861056

>  <Internal ID>  (399) 


>  <Source>  (399) 
AstraZeneca

$$$$
CHEMBL1672
     RDKit          2D

 28 30  0  0  1  0  0  0  0  0999 V2000
    2.5973   -0.5040    0.0000 C   0  0  0  0  0  0  0  0  0  0  0  0
    1.7320   -0.0026    0.0000 O   0  0  0  0  0  0  0  0  0  0  0  0
    0.8653   -0.5013    0.0000 C   0  0  0  0  0  0  0  0  0  0  0  0
    0.0000    0.0000    0.0000 C   0  0  0  0  0  0  0  0  0  0  0  0
   -0.8716   -0.4998    0.0000 C   0  0  0  0  0  0  0  0  0  0  0  0
   -1.7375    0.0003    0.0000 N   0  0  0  0  0  0  0  0  0  0  0  0
   -1.7374    1.0058    0.0000 C   0  0  0  0  0  0  0  0  0  0  0  0
   -0.8713    1.5112    0.0000 S   0  0  0  0  0  0  0  0  0  0  0  0
    0.0001    1.0055    0.0000 C   0  0  0  0  0  0  0  0  0  0  0  0
   -2.7429    1.0058    0.0000 C   0  0  0  0  0  0  0  0  0  0  0  0
   -3.4500    1.7129    0.0000 N   0  0  0  0  0  0  0  0  0  0  0  0
   -3.1912    2.6788    0.0000 C   0  0  0  0  0  0  0  0  0  0  0  0
   -2.2253    2.9377    0.0000 O   0  0  0  0  0  0  0  0  0  0  0  0
   -3.8983    3.3859    0.0000 C   0  0  0  0  0  0  0  0  0  0  0  0
   -4.8642    3.1271    0.0000 N   0  0  0  0  0  0  0  0  0  0  0  0
   -5.1230    2.1612    0.0000 O   0  0  0  0  0  0  0  0  0  0  0  0
   -6.0890    1.9024    0.0000 C   0  0  0  0  0  0  0  0  0  0  0  0
   -3.6395    4.3519    0.0000 C   0  0  0  0  0  0  0  0  0  0  0  0
   -4.2678    5.1299    0.0000 C   0  0  0  0  0  0  0  0  0  0  0  0
   -3.7270    5.9715    0.0000 S   0  0  0  0  0  0  0  0  0  0  0  0
   -2.7563    5.7124    0.0000 C   0  0  0  0  0  0  0  0  0  0  0  0
   -1.9791    6.3416    0.0000 N   0  0  0  0  0  0  0  0  0  0  0  0
   -2.7050    4.7120    0.0000 N   0  0  0  0  0  0  0  0  0  0  0  0
   -2.7429    0.0003    0.0000 C   0  0  0  0  0  0  0  0  0  0  0  0
   -3.4500   -0.7068    0.0000 O   0  0  0  0  0  0  0  0  0  0  0  0
   -0.8731   -1.4998    0.0000 C   0  0  0  0  0  0  0  0  0  0  0  0
   -1.7399   -1.9985    0.0000 O   0  0  0  0  0  0  0  0  0  0  0  0
   -0.0079   -2.0011    0.0000 O   0  0  0  0  0  0  0  0  0  0  0  0
  1  2  1  0
  2  3  1  0
  3  4  1  0
  4  9  1  0
  4  5  2  0
  5  6  1  0
  6 24  1  0
  6  7  1  0
  7  8  1  1
  8  9  1  0
  7 10  1  0
 10 11  1  1
 11 12  1  0
 12 13  2  0
 12 14  1  0
 14 15  2  0
 15 16  1  0
 16 17  1  0
 14 18  1  0
 18 23  1  0
 18 19  2  0
 19 20  1  0
 20 21  1  0
 21 22  1  0
 21 23  2  0
 10 24  1  0
 24 25  2  0
  5 26  1  0
 26 27  2  0
 26 28  1  0
M  END
>  <SMILES>  (400) 
COCC1=C(C(=O)O)N2C(=O)[C@@H](NC(=O)/C(=N\OC)c3csc(N)n3)[C@H]2SC1

>  <CollectionName>  (400) 
chembl

>  <LOG PLASMA PROTEIN BINDING (RAT) (% unbound)>  (400) 
1.6571515019

>  <Internal ID>  (400) 


>  <Source>  (400) 
AstraZeneca

$$$$
CHEMBL2011127
     RDKit          2D

 35 39  0  0  1  0  0  0  0  0999 V2000
    8.1791    2.7865    0.0000 C   0  0  0  0  0  0  0  0  0  0  0  0
    8.6743    1.9178    0.0000 C   0  0  0  0  0  0  0  0  0  0  0  0
    9.6743    1.9122    0.0000 C   0  0  0  0  0  0  0  0  0  0  0  0
    8.1695    1.0545    0.0000 N   0  0  0  0  0  0  0  0  0  0  0  0
    7.1675    0.9548    0.0000 C   0  0  0  0  0  0  0  0  0  0  0  0
    6.9524   -0.0290    0.0000 C   0  0  0  0  0  0  0  0  0  0  0  0
    6.0757   -0.5219    0.0000 C   0  0  0  0  0  0  0  0  0  0  0  0
    6.0759   -1.5276    0.0000 N   0  0  0  0  0  0  0  0  0  0  0  0
    6.9442   -2.0353    0.0000 C   0  0  0  0  0  0  0  0  0  0  0  0
    7.8122   -1.5374    0.0000 N   0  0  0  0  0  0  0  0  0  0  0  0
    7.8217   -0.5375    0.0000 C   0  0  0  0  0  0  0  0  0  0  0  0
    8.5740    0.1322    0.0000 C   0  0  0  0  0  0  0  0  0  0  0  0
    9.5509   -0.0813    0.0000 O   0  0  0  0  0  0  0  0  0  0  0  0
    6.9399   -3.0353    0.0000 N   0  0  0  0  0  0  0  0  0  0  0  0
    7.8053   -3.5365    0.0000 C   0  0  0  0  0  0  0  0  0  0  0  0
    7.8011   -4.5417    0.0000 C   0  0  0  0  0  0  0  0  0  0  0  0
    6.9315   -5.0457    0.0000 N   0  0  0  0  0  0  0  0  0  0  0  0
    6.0661   -4.5344    0.0000 C   0  0  0  0  0  0  0  0  0  0  0  0
    6.0704   -3.5292    0.0000 C   0  0  0  0  0  0  0  0  0  0  0  0
    6.9273   -6.0457    0.0000 C   0  0  0  0  0  0  0  0  0  0  0  0
    7.7912   -6.5493    0.0000 O   0  0  0  0  0  0  0  0  0  0  0  0
    6.0591   -6.5420    0.0000 C   0  0  0  0  0  0  0  0  0  0  0  0
    5.2125   -0.0170    0.0000 N   0  0  0  0  0  0  0  0  0  0  0  0
    5.2181    0.9830    0.0000 C   0  0  0  0  0  0  0  0  0  0  0  0
    4.3437   -0.5122    0.0000 C   0  0  0  0  0  0  0  0  0  0  0  0
    3.4805   -0.0073    0.0000 C   0  0  0  0  0  0  0  0  0  0  0  0
    2.6039   -0.5053    0.0000 C   0  0  0  0  0  0  0  0  0  0  0  0
    1.7371   -0.0000    0.0000 C   0  0  0  0  0  0  0  0  0  0  0  0
    0.8707   -0.4993    0.0000 C   0  0  0  0  0  0  0  0  0  0  0  0
    0.0000    0.0000    0.0000 C   0  0  0  0  0  0  0  0  0  0  0  0
    0.0000    1.0089    0.0000 C   0  0  0  0  0  0  0  0  0  0  0  0
    0.8707    1.5185    0.0000 C   0  0  0  0  0  0  0  0  0  0  0  0
    1.7414    1.0089    0.0000 C   0  0  0  0  0  0  0  0  0  0  0  0
    2.6125    1.5125    0.0000 C   0  0  0  0  0  0  0  0  0  0  0  0
    3.4848    1.0014    0.0000 N   0  0  0  0  0  0  0  0  0  0  0  0
  1  2  1  0
  2  3  1  0
  2  4  1  0
  4 12  1  0
  4  5  1  0
  5  6  1  0
  6 11  2  0
  6  7  1  0
  7  8  2  0
  8  9  1  0
  9 10  2  0
 10 11  1  0
 11 12  1  0
 12 13  2  0
  9 14  1  0
 14 19  1  0
 14 15  1  0
 15 16  1  0
 16 17  1  0
 17 18  1  0
 18 19  1  0
 17 20  1  0
 20 21  2  0
 20 22  1  0
  7 23  1  0
 23 24  1  0
 23 25  1  0
 25 26  1  0
 26 35  1  0
 26 27  2  0
 27 28  1  0
 28 33  2  0
 28 29  1  0
 29 30  2  0
 30 31  1  0
 31 32  2  0
 32 33  1  0
 33 34  1  0
 34 35  2  0
M  END
>  <SMILES>  (401) 
CC(=O)N1CCN(c2nc3c(c(N(C)Cc4cc5ccccc5cn4)n2)CN(C(C)C)C3=O)CC1

>  <CollectionName>  (401) 
chembl

>  <LOG PLASMA PROTEIN BINDING (RAT) (% unbound)>  (401) 
1.5301996982

>  <Internal ID>  (401) 


>  <Source>  (401) 
AstraZeneca

$$$$
CHEMBL2017459
     RDKit          2D

 29 32  0  0  0  0  0  0  0  0999 V2000
    2.6038    5.5104    0.0000 C   0  0  0  0  0  0  0  0  0  0  0  0
    1.7400    6.0142    0.0000 C   0  0  0  0  0  0  0  0  0  0  0  0
    0.8718    5.5180    0.0000 N   0  0  0  0  0  0  0  0  0  0  0  0
    0.0080    6.0219    0.0000 C   0  0  0  0  0  0  0  0  0  0  0  0
   -0.8603    5.5257    0.0000 O   0  0  0  0  0  0  0  0  0  0  0  0
    0.0124    7.0218    0.0000 C   0  0  0  0  0  0  0  0  0  0  0  0
    0.8272    7.6096    0.0000 O   0  0  0  0  0  0  0  0  0  0  0  0
    0.5175    8.5609    0.0000 C   0  0  0  0  0  0  0  0  0  0  0  0
   -0.4825    8.5665    0.0000 C   0  0  0  0  0  0  0  0  0  0  0  0
   -0.7948    7.6149    0.0000 C   0  0  0  0  0  0  0  0  0  0  0  0
    1.1073    9.3684    0.0000 C   0  0  0  0  0  0  0  0  0  0  0  0
    2.1018    9.2628    0.0000 C   0  0  0  0  0  0  0  0  0  0  0  0
    2.6951   10.0677    0.0000 C   0  0  0  0  0  0  0  0  0  0  0  0
    2.2900   10.9877    0.0000 C   0  0  0  0  0  0  0  0  0  0  0  0
    2.8833   11.7926    0.0000 Cl  0  0  0  0  0  0  0  0  0  0  0  0
    1.2914   11.1026    0.0000 C   0  0  0  0  0  0  0  0  0  0  0  0
    0.7021   10.2883    0.0000 C   0  0  0  0  0  0  0  0  0  0  0  0
    0.8674    4.5181    0.0000 C   0  0  0  0  0  0  0  0  0  0  0  0
    1.7372    4.0142    0.0000 C   0  0  0  0  0  0  0  0  0  0  0  0
    1.7328    3.0142    0.0000 C   0  0  0  0  0  0  0  0  0  0  0  0
    0.8675    2.5129    0.0000 C   0  0  0  0  0  0  0  0  0  0  0  0
   -0.0023    3.0168    0.0000 C   0  0  0  0  0  0  0  0  0  0  0  0
   -0.0068    4.0219    0.0000 C   0  0  0  0  0  0  0  0  0  0  0  0
    0.8675    1.5129    0.0000 N   0  0  0  0  0  0  0  0  0  0  0  0
    0.0000    1.0052    0.0000 C   0  0  0  0  0  0  0  0  0  0  0  0
    0.0000    0.0000    0.0000 C   0  0  0  0  0  0  0  0  0  0  0  0
    0.8675   -0.4975    0.0000 N   0  0  0  0  0  0  0  0  0  0  0  0
    1.7350    0.0000    0.0000 C   0  0  0  0  0  0  0  0  0  0  0  0
    1.7350    1.0052    0.0000 C   0  0  0  0  0  0  0  0  0  0  0  0
  1  2  1  0
  2  3  1  0
  3  4  1  0
  4  5  2  0
  4  6  1  0
  6 10  2  0
  6  7  1  0
  7  8  1  0
  8  9  2  0
  9 10  1  0
  8 11  1  0
 11 17  1  0
 11 12  2  0
 12 13  1  0
 13 14  2  0
 14 15  1  0
 14 16  1  0
 16 17  2  0
  3 18  1  0
 18 23  1  0
 18 19  2  0
 19 20  1  0
 20 21  2  0
 21 22  1  0
 22 23  2  0
 21 24  1  0
 24 29  1  0
 24 25  1  0
 25 26  1  0
 26 27  1  0
 27 28  1  0
 28 29  1  0
M  END
>  <SMILES>  (402) 
CCN(C(=O)c1ccc(-c2ccc(Cl)cc2)o1)c1ccc(N2CCNCC2)cc1

>  <CollectionName>  (402) 
chembl

>  <LOG PLASMA PROTEIN BINDING (RAT) (% unbound)>  (402) 
0.631443769013

>  <Internal ID>  (402) 


>  <Source>  (402) 
AstraZeneca

$$$$
CHEMBL1080786
     RDKit          2D

 22 24  0  0  1  0  0  0  0  0999 V2000
    1.7319    2.9076    0.0000 N   0  0  0  0  0  0  0  0  0  0  0  0
    2.4741    2.2374    0.0000 C   0  0  0  0  0  0  0  0  0  0  0  0
    2.2648    1.2596    0.0000 C   0  0  0  0  0  0  0  0  0  0  0  0
    1.3133    0.9519    0.0000 C   0  0  0  0  0  0  0  0  0  0  0  0
    1.0015    0.0000    0.0000 C   0  0  0  0  0  0  0  0  0  0  0  0
    0.0000    0.0000    0.0000 C   0  0  0  0  0  0  0  0  0  0  0  0
   -0.3065    0.9519    0.0000 C   0  0  0  0  0  0  0  0  0  0  0  0
    0.5008    1.5428    0.0000 S   0  0  0  0  0  0  0  0  0  0  0  0
    3.4256    2.5451    0.0000 C   0  0  0  0  0  0  0  0  0  0  0  0
    4.1678    1.8749    0.0000 O   0  0  0  0  0  0  0  0  0  0  0  0
    3.6349    3.5229    0.0000 N   0  0  0  0  0  0  0  0  0  0  0  0
    4.5864    3.8306    0.0000 C   0  0  0  0  0  0  0  0  0  0  0  0
    5.3759    4.4474    0.0000 C   0  0  0  0  0  0  0  0  0  0  0  0
    4.4491    4.8230    0.0000 C   0  0  0  0  0  0  0  0  0  0  0  0
    3.8347    5.6120    0.0000 C   0  0  0  0  0  0  0  0  0  0  0  0
    2.8395    5.4708    0.0000 C   0  0  0  0  0  0  0  0  0  0  0  0
    2.2250    6.2598    0.0000 C   0  0  0  0  0  0  0  0  0  0  0  0
    2.5957    7.1886    0.0000 C   0  0  0  0  0  0  0  0  0  0  0  0
    3.5909    7.3298    0.0000 C   0  0  0  0  0  0  0  0  0  0  0  0
    4.2155    6.5422    0.0000 C   0  0  0  0  0  0  0  0  0  0  0  0
    5.0553    2.9473    0.0000 C   0  0  0  0  0  0  0  0  0  0  0  0
    5.5241    2.0640    0.0000 N   0  0  0  0  0  0  0  0  0  0  0  0
  2  1  1  6
  2  3  1  0
  3  4  1  0
  4  8  1  0
  4  5  2  0
  5  6  1  0
  6  7  2  0
  7  8  1  0
  2  9  1  0
  9 10  2  0
  9 11  1  0
 12 11  1  0
 12 14  1  0
 12 13  1  0
 13 14  1  0
 14 15  1  6
 15 20  1  0
 15 16  2  0
 16 17  1  0
 17 18  2  0
 18 19  1  0
 19 20  2  0
 12 21  1  1
 21 22  3  0
M  END
>  <SMILES>  (403) 
N#C[C@]1(NC(=O)[C@@H](N)Cc2cccs2)C[C@H]1c1ccccc1

>  <CollectionName>  (403) 
chembl

>  <LOG PLASMA PROTEIN BINDING (RAT) (% unbound)>  (403) 
1.46864266839

>  <Internal ID>  (403) 


>  <Source>  (403) 
AstraZeneca

$$$$
CHEMBL1088751
     RDKit          2D

 30 32  0  0  0  0  0  0  0  0999 V2000
    2.5833    6.5257    0.0000 C   0  0  0  0  0  0  0  0  0  0  0  0
    1.7202    6.0206    0.0000 N   0  0  0  0  0  0  0  0  0  0  0  0
    1.7261    5.0206    0.0000 C   0  0  0  0  0  0  0  0  0  0  0  0
    2.5951    4.5257    0.0000 O   0  0  0  0  0  0  0  0  0  0  0  0
    0.8631    4.5155    0.0000 C   0  0  0  0  0  0  0  0  0  0  0  0
   -0.0089    5.0155    0.0000 C   0  0  0  0  0  0  0  0  0  0  0  0
   -0.8721    4.5105    0.0000 C   0  0  0  0  0  0  0  0  0  0  0  0
   -0.8720    3.5104    0.0000 C   0  0  0  0  0  0  0  0  0  0  0  0
   -1.7373    3.0091    0.0000 C   0  0  0  0  0  0  0  0  0  0  0  0
   -0.0000    3.0104    0.0000 C   0  0  0  0  0  0  0  0  0  0  0  0
    0.8720    3.5104    0.0000 C   0  0  0  0  0  0  0  0  0  0  0  0
   -0.0000    2.0104    0.0000 N   0  0  0  0  0  0  0  0  0  0  0  0
   -0.8675    1.5027    0.0000 C   0  0  0  0  0  0  0  0  0  0  0  0
   -0.8675    0.4975    0.0000 C   0  0  0  0  0  0  0  0  0  0  0  0
    0.0000    0.0000    0.0000 C   0  0  0  0  0  0  0  0  0  0  0  0
    0.8675    0.4975    0.0000 C   0  0  0  0  0  0  0  0  0  0  0  0
    1.7328   -0.0038    0.0000 Br  0  0  0  0  0  0  0  0  0  0  0  0
    0.8675    1.5027    0.0000 C   0  0  0  0  0  0  0  0  0  0  0  0
    1.7350    2.0001    0.0000 O   0  0  0  0  0  0  0  0  0  0  0  0
    0.0000   -1.0000    0.0000 O   0  0  0  0  0  0  0  0  0  0  0  0
    0.8660   -1.5000    0.0000 C   0  0  0  0  0  0  0  0  0  0  0  0
    0.8660   -2.5000    0.0000 C   0  0  0  0  0  0  0  0  0  0  0  0
    1.7314   -3.0013    0.0000 C   0  0  0  0  0  0  0  0  0  0  0  0
    1.7357   -4.0013    0.0000 C   0  0  0  0  0  0  0  0  0  0  0  0
    0.8659   -4.5052    0.0000 C   0  0  0  0  0  0  0  0  0  0  0  0
    0.8703   -5.5051    0.0000 F   0  0  0  0  0  0  0  0  0  0  0  0
   -0.0082   -4.0090    0.0000 C   0  0  0  0  0  0  0  0  0  0  0  0
   -0.0038   -3.0039    0.0000 C   0  0  0  0  0  0  0  0  0  0  0  0
   -0.8690   -2.5026    0.0000 F   0  0  0  0  0  0  0  0  0  0  0  0
   -1.7350    2.0001    0.0000 C   0  0  0  0  0  0  0  0  0  0  0  0
  1  2  1  0
  2  3  1  0
  3  4  2  0
  3  5  1  0
  5 11  2  0
  5  6  1  0
  6  7  2  0
  7  8  1  0
  8  9  1  0
  8 10  2  0
 10 11  1  0
 10 12  1  0
 12 18  1  0
 12 13  1  0
 13 14  2  0
 14 15  1  0
 15 16  2  0
 16 17  1  0
 16 18  1  0
 18 19  2  0
 15 20  1  0
 20 21  1  0
 21 22  1  0
 22 28  1  0
 22 23  2  0
 23 24  1  0
 24 25  2  0
 25 26  1  0
 25 27  1  0
 27 28  2  0
 28 29  1  0
 13 30  1  0
M  END
>  <SMILES>  (404) 
CNC(=O)c1ccc(C)c(-n2c(C)cc(OCc3ccc(F)cc3F)c(Br)c2=O)c1

>  <CollectionName>  (404) 
chembl

>  <LOG PLASMA PROTEIN BINDING (RAT) (% unbound)>  (404) 
0.26245108973

>  <Internal ID>  (404) 


>  <Source>  (404) 
AstraZeneca

$$$$
CHEMBL1089518
     RDKit          2D

 27 29  0  0  0  0  0  0  0  0999 V2000
   -4.3293   -3.5186    0.0000 C   0  0  0  0  0  0  0  0  0  0  0  0
   -3.4640   -3.0173    0.0000 C   0  0  0  0  0  0  0  0  0  0  0  0
   -2.5972   -3.5161    0.0000 C   0  0  0  0  0  0  0  0  0  0  0  0
   -1.7319   -3.0149    0.0000 C   0  0  0  0  0  0  0  0  0  0  0  0
   -1.7333   -2.0149    0.0000 O   0  0  0  0  0  0  0  0  0  0  0  0
   -0.8680   -1.5137    0.0000 C   0  0  0  0  0  0  0  0  0  0  0  0
   -0.8680   -0.5079    0.0000 N   0  0  0  0  0  0  0  0  0  0  0  0
    0.0000    0.0000    0.0000 C   0  0  0  0  0  0  0  0  0  0  0  0
    0.0000    1.0000    0.0000 N   0  0  0  0  0  0  0  0  0  0  0  0
    0.8680   -0.5079    0.0000 C   0  0  0  0  0  0  0  0  0  0  0  0
    1.8258   -0.1969    0.0000 N   0  0  0  0  0  0  0  0  0  0  0  0
    2.4178   -1.0115    0.0000 C   0  0  0  0  0  0  0  0  0  0  0  0
    3.4178   -1.0114    0.0000 O   0  0  0  0  0  0  0  0  0  0  0  0
    1.8258   -1.8263    0.0000 N   0  0  0  0  0  0  0  0  0  0  0  0
    2.1348   -2.7774    0.0000 C   0  0  0  0  0  0  0  0  0  0  0  0
    1.4656   -3.5205    0.0000 C   0  0  0  0  0  0  0  0  0  0  0  0
    0.4830   -3.3085    0.0000 C   0  0  0  0  0  0  0  0  0  0  0  0
   -0.1862   -4.0516    0.0000 C   0  0  0  0  0  0  0  0  0  0  0  0
    0.1172   -5.0045    0.0000 C   0  0  0  0  0  0  0  0  0  0  0  0
    1.0998   -5.2165    0.0000 C   0  0  0  0  0  0  0  0  0  0  0  0
    1.4031   -6.1694    0.0000 C   0  0  0  0  0  0  0  0  0  0  0  0
    0.7296   -6.9085    0.0000 C   0  0  0  0  0  0  0  0  0  0  0  0
   -0.2473   -6.6948    0.0000 O   0  0  0  0  0  0  0  0  0  0  0  0
    1.0330   -7.8614    0.0000 O   0  0  0  0  0  0  0  0  0  0  0  0
    1.7790   -4.4755    0.0000 C   0  0  0  0  0  0  0  0  0  0  0  0
    0.8680   -1.5150    0.0000 C   0  0  0  0  0  0  0  0  0  0  0  0
   -0.0000   -2.0116    0.0000 N   0  0  0  0  0  0  0  0  0  0  0  0
  1  2  1  0
  2  3  1  0
  3  4  1  0
  4  5  1  0
  5  6  1  0
  6 27  2  0
  6  7  1  0
  7  8  2  0
  8  9  1  0
  8 10  1  0
 10 26  2  0
 10 11  1  0
 11 12  1  0
 12 13  2  0
 12 14  1  0
 14 15  1  0
 15 16  1  0
 16 25  1  0
 16 17  2  0
 17 18  1  0
 18 19  2  0
 19 20  1  0
 20 21  1  0
 21 22  1  0
 22 23  2  0
 22 24  1  0
 20 25  2  0
 14 26  1  0
 26 27  1  0
M  END
>  <SMILES>  (405) 
CCCCOc1nc(N)c2[nH]c(=O)n(Cc3cccc(CC(=O)O)c3)c2n1

>  <CollectionName>  (405) 
chembl

>  <LOG PLASMA PROTEIN BINDING (RAT) (% unbound)>  (405) 
0.698100545623

>  <Internal ID>  (405) 


>  <Source>  (405) 
AstraZeneca

$$$$
CHEMBL193
     RDKit          2D

 25 26  0  0  0  0  0  0  0  0999 V2000
   -2.5966   -1.5050    0.0000 C   0  0  0  0  0  0  0  0  0  0  0  0
   -1.7313   -1.0038    0.0000 O   0  0  0  0  0  0  0  0  0  0  0  0
   -1.7328   -0.0038    0.0000 C   0  0  0  0  0  0  0  0  0  0  0  0
   -2.5995    0.4950    0.0000 O   0  0  0  0  0  0  0  0  0  0  0  0
   -0.8675    0.4975    0.0000 C   0  0  0  0  0  0  0  0  0  0  0  0
   -0.8675    1.5027    0.0000 C   0  0  0  0  0  0  0  0  0  0  0  0
   -1.7350    2.0001    0.0000 C   0  0  0  0  0  0  0  0  0  0  0  0
   -0.0000    2.0104    0.0000 N   0  0  0  0  0  0  0  0  0  0  0  0
    0.8675    1.5027    0.0000 C   0  0  0  0  0  0  0  0  0  0  0  0
    0.8675    0.4975    0.0000 C   0  0  0  0  0  0  0  0  0  0  0  0
    0.0000    0.0000    0.0000 C   0  0  0  0  0  0  0  0  0  0  0  0
    0.0000   -1.7500    0.0000 C   0  0  0  0  0  0  0  0  0  0  0  0
   -0.8653   -2.2513    0.0000 C   0  0  0  0  0  0  0  0  0  0  0  0
   -0.8697   -3.2513    0.0000 C   0  0  0  0  0  0  0  0  0  0  0  0
    0.0001   -3.7552    0.0000 C   0  0  0  0  0  0  0  0  0  0  0  0
    0.8743   -3.2590    0.0000 C   0  0  0  0  0  0  0  0  0  0  0  0
    0.8698   -2.2539    0.0000 C   0  0  0  0  0  0  0  0  0  0  0  0
    2.3840   -1.3766    0.0000 N   0  0  0  0  0  0  0  0  0  0  0  0
    2.3825   -0.3766    0.0000 O   0  0  0  0  0  0  0  0  0  0  0  0
    3.2508   -1.8753    0.0000 O   0  0  0  0  0  0  0  0  0  0  0  0
    1.7328   -0.0038    0.0000 C   0  0  0  0  0  0  0  0  0  0  0  0
    1.7313   -1.0038    0.0000 O   0  0  0  0  0  0  0  0  0  0  0  0
    2.5995    0.4950    0.0000 O   0  0  0  0  0  0  0  0  0  0  0  0
    3.4648   -0.0063    0.0000 C   0  0  0  0  0  0  0  0  0  0  0  0
    1.7350    2.0001    0.0000 C   0  0  0  0  0  0  0  0  0  0  0  0
  1  2  1  0
  2  3  1  0
  3  4  2  0
  3  5  1  0
  5 11  1  0
  5  6  2  0
  6  7  1  0
  6  8  1  0
  8  9  1  0
  9 10  2  0
 10 11  1  0
 11 12  1  0
 12 17  1  0
 12 13  2  0
 13 14  1  0
 14 15  2  0
 15 16  1  0
 16 17  2  0
 17 18  1  0
 18 19  2  0
 18 20  1  0
 10 21  1  0
 21 22  2  0
 21 23  1  0
 23 24  1  0
  9 25  1  0
M  CHG  2  18   1  20  -1
M  END
>  <SMILES>  (406) 
COC(=O)C1=C(C)NC(C)=C(C(=O)OC)C1c1ccccc1[N+](=O)[O-]

>  <CollectionName>  (406) 
chembl

>  <LOG PLASMA PROTEIN BINDING (RAT) (% unbound)>  (406) 
-0.638272163982

>  <Internal ID>  (406) 


>  <Source>  (406) 
AstraZeneca

$$$$
CHEMBL605846
     RDKit          2D

 28 30  0  0  1  0  0  0  0  0999 V2000
    6.9280    2.0072    0.0000 C   0  0  0  0  0  0  0  0  0  0  0  0
    6.9324    3.0072    0.0000 O   0  0  0  0  0  0  0  0  0  0  0  0
    6.0686    3.5110    0.0000 C   0  0  0  0  0  0  0  0  0  0  0  0
    5.1973    3.0097    0.0000 C   0  0  0  0  0  0  0  0  0  0  0  0
    4.3335    3.5135    0.0000 C   0  0  0  0  0  0  0  0  0  0  0  0
    4.3320    4.5135    0.0000 C   0  0  0  0  0  0  0  0  0  0  0  0
    3.4660    5.0135    0.0000 C   0  0  0  0  0  0  0  0  0  0  0  0
    2.6000    4.5135    0.0000 C   0  0  0  0  0  0  0  0  0  0  0  0
    2.1000    5.3795    0.0000 C   0  0  0  0  0  0  0  0  0  0  0  0
    3.1000    3.6475    0.0000 C   0  0  0  0  0  0  0  0  0  0  0  0
    1.7339    4.0135    0.0000 N   0  0  0  0  0  0  0  0  0  0  0  0
    1.7339    3.0135    0.0000 C   0  0  0  0  0  0  0  0  0  0  0  0
    0.8679    2.5135    0.0000 C   0  0  0  0  0  0  0  0  0  0  0  0
    0.0019    3.0135    0.0000 O   0  0  0  0  0  0  0  0  0  0  0  0
    0.8679    1.5135    0.0000 C   0  0  0  0  0  0  0  0  0  0  0  0
    0.0000    1.0056    0.0000 C   0  0  0  0  0  0  0  0  0  0  0  0
    0.0000    0.0000    0.0000 C   0  0  0  0  0  0  0  0  0  0  0  0
   -0.8653   -0.5013    0.0000 O   0  0  0  0  0  0  0  0  0  0  0  0
    0.8679   -0.4977    0.0000 C   0  0  0  0  0  0  0  0  0  0  0  0
    1.7371    0.0000    0.0000 C   0  0  0  0  0  0  0  0  0  0  0  0
    2.6038   -0.4989    0.0000 N   0  0  0  0  0  0  0  0  0  0  0  0
    3.4748    0.0023    0.0000 C   0  0  0  0  0  0  0  0  0  0  0  0
    4.3408   -0.4978    0.0000 O   0  0  0  0  0  0  0  0  0  0  0  0
    3.4735    1.0079    0.0000 C   0  0  0  0  0  0  0  0  0  0  0  0
    2.6012    1.5123    0.0000 O   0  0  0  0  0  0  0  0  0  0  0  0
    1.7358    1.0056    0.0000 C   0  0  0  0  0  0  0  0  0  0  0  0
    5.2033    5.0148    0.0000 C   0  0  0  0  0  0  0  0  0  0  0  0
    6.0760    4.5161    0.0000 C   0  0  0  0  0  0  0  0  0  0  0  0
  1  2  1  0
  2  3  1  0
  3 28  2  0
  3  4  1  0
  4  5  2  0
  5  6  1  0
  6  7  1  0
  7  8  1  0
  8  9  1  0
  8 10  1  0
  8 11  1  0
 11 12  1  0
 12 13  1  0
 13 14  1  1
 13 15  1  0
 15 26  1  0
 15 16  2  0
 16 17  1  0
 17 18  1  0
 17 19  2  0
 19 20  1  0
 20 26  2  0
 20 21  1  0
 21 22  1  0
 22 23  2  0
 22 24  1  0
 24 25  1  0
 25 26  1  0
  6 27  2  0
 27 28  1  0
M  END
>  <SMILES>  (407) 
COc1ccc(CC(C)(C)NC[C@H](O)c2cc(O)cc3c2OCC(=O)N3)cc1

>  <CollectionName>  (407) 
chembl

>  <LOG PLASMA PROTEIN BINDING (RAT) (% unbound)>  (407) 
1.64610952198

>  <Internal ID>  (407) 


>  <Source>  (407) 
AstraZeneca

$$$$
CHEMBL584260
     RDKit          2D

 34 36  0  0  0  0  0  0  0  0999 V2000
    0.0000   -1.0000    0.0000 C   0  0  0  0  0  0  0  0  0  0  0  0
    0.0000    0.0000    0.0000 C   0  0  0  0  0  0  0  0  0  0  0  0
    0.8675    0.4975    0.0000 C   0  0  0  0  0  0  0  0  0  0  0  0
    1.7328   -0.0038    0.0000 C   0  0  0  0  0  0  0  0  0  0  0  0
    2.5995    0.4950    0.0000 C   0  0  0  0  0  0  0  0  0  0  0  0
    2.6010    1.4950    0.0000 O   0  0  0  0  0  0  0  0  0  0  0  0
    3.4648   -0.0063    0.0000 N   0  0  0  0  0  0  0  0  0  0  0  0
    4.3316    0.4925    0.0000 C   0  0  0  0  0  0  0  0  0  0  0  0
    5.1969   -0.0088    0.0000 C   0  0  0  0  0  0  0  0  0  0  0  0
    5.1969   -1.0088    0.0000 C   0  0  0  0  0  0  0  0  0  0  0  0
    6.0600   -1.5138    0.0000 C   0  0  0  0  0  0  0  0  0  0  0  0
    6.9320   -1.0138    0.0000 C   0  0  0  0  0  0  0  0  0  0  0  0
    6.9409   -0.0087    0.0000 C   0  0  0  0  0  0  0  0  0  0  0  0
    6.0689    0.4913    0.0000 C   0  0  0  0  0  0  0  0  0  0  0  0
    7.7951   -1.5188    0.0000 C   0  0  0  0  0  0  0  0  0  0  0  0
    7.7892   -2.5188    0.0000 N   0  0  0  0  0  0  0  0  0  0  0  0
    8.6640   -1.0239    0.0000 N   0  0  0  0  0  0  0  0  0  0  0  0
    0.8675    1.5027    0.0000 C   0  0  0  0  0  0  0  0  0  0  0  0
    1.7350    2.0001    0.0000 O   0  0  0  0  0  0  0  0  0  0  0  0
   -0.0000    2.0104    0.0000 N   0  0  0  0  0  0  0  0  0  0  0  0
   -0.8675    1.5027    0.0000 C   0  0  0  0  0  0  0  0  0  0  0  0
   -0.8675    0.4975    0.0000 C   0  0  0  0  0  0  0  0  0  0  0  0
   -0.0000    3.0104    0.0000 N   0  0  0  0  0  0  0  0  0  0  0  0
   -0.8660    3.5104    0.0000 S   0  0  0  0  0  0  0  0  0  0  0  0
   -0.3660    4.3764    0.0000 O   0  0  0  0  0  0  0  0  0  0  0  0
   -1.3660    2.6444    0.0000 O   0  0  0  0  0  0  0  0  0  0  0  0
   -1.7321    4.0104    0.0000 C   0  0  0  0  0  0  0  0  0  0  0  0
   -1.7380    5.0155    0.0000 C   0  0  0  0  0  0  0  0  0  0  0  0
   -0.8734    5.5181    0.0000 C   0  0  0  0  0  0  0  0  0  0  0  0
   -2.6085    5.5181    0.0000 C   0  0  0  0  0  0  0  0  0  0  0  0
   -3.4731    5.0156    0.0000 C   0  0  0  0  0  0  0  0  0  0  0  0
   -3.4760    4.0156    0.0000 C   0  0  0  0  0  0  0  0  0  0  0  0
   -2.6055    3.5130    0.0000 C   0  0  0  0  0  0  0  0  0  0  0  0
   -2.6084    2.5130    0.0000 Cl  0  0  0  0  0  0  0  0  0  0  0  0
  1  2  1  0
  2 22  1  0
  2  3  2  0
  3  4  1  0
  4  5  1  0
  5  6  2  0
  5  7  1  0
  7  8  1  0
  8  9  1  0
  9 14  1  0
  9 10  2  0
 10 11  1  0
 11 12  2  0
 12 13  1  0
 13 14  2  0
 12 15  1  0
 15 16  2  3
 15 17  1  0
  3 18  1  0
 18 19  2  0
 18 20  1  0
 20 21  1  0
 21 22  1  0
 20 23  1  0
 23 24  1  0
 24 25  2  0
 24 26  2  0
 24 27  1  0
 27 33  1  0
 27 28  2  0
 28 29  1  0
 28 30  1  0
 30 31  2  0
 31 32  1  0
 32 33  2  0
 33 34  1  0
M  END
>  <SMILES>  (408) 
CC1=C(CC(=O)NCc2ccc(C(=N)N)cc2)C(=O)N(NS(=O)(=O)c2c(C)cccc2Cl)CC1

>  <CollectionName>  (408) 
chembl

>  <LOG PLASMA PROTEIN BINDING (RAT) (% unbound)>  (408) 
1.73255457985

>  <Internal ID>  (408) 


>  <Source>  (408) 
AstraZeneca

$$$$
CHEMBL1515
     RDKit          2D

  7  7  0  0  0  0  0  0  0  0999 V2000
    0.4993    2.5428    0.0000 C   0  0  0  0  0  0  0  0  0  0  0  0
    0.5008    1.5428    0.0000 N   0  0  0  0  0  0  0  0  0  0  0  0
   -0.3065    0.9519    0.0000 C   0  0  0  0  0  0  0  0  0  0  0  0
    0.0000    0.0000    0.0000 C   0  0  0  0  0  0  0  0  0  0  0  0
    1.0015   -0.0000    0.0000 N   0  0  0  0  0  0  0  0  0  0  0  0
    1.3133    0.9519    0.0000 C   0  0  0  0  0  0  0  0  0  0  0  0
    2.2648    1.2596    0.0000 S   0  0  0  0  0  0  0  0  0  0  0  0
  1  2  1  0
  2  6  1  0
  2  3  1  0
  3  4  2  0
  4  5  1  0
  5  6  1  0
  6  7  2  0
M  END
>  <SMILES>  (409) 
Cn1cc[nH]c1=S

>  <CollectionName>  (409) 
chembl

>  <LOG PLASMA PROTEIN BINDING (RAT) (% unbound)>  (409) 
1.91041093991

>  <Internal ID>  (409) 


>  <Source>  (409) 
AstraZeneca

$$$$
CHEMBL236788
     RDKit          2D

 34 37  0  0  0  0  0  0  0  0999 V2000
   10.7859    1.3658    0.0000 C   0  0  0  0  0  0  0  0  0  0  0  0
   10.2884    2.2333    0.0000 C   0  0  0  0  0  0  0  0  0  0  0  0
    9.2884    2.2362    0.0000 O   0  0  0  0  0  0  0  0  0  0  0  0
    8.7909    3.1037    0.0000 C   0  0  0  0  0  0  0  0  0  0  0  0
    7.7909    3.1037    0.0000 C   0  0  0  0  0  0  0  0  0  0  0  0
    7.2908    3.9756    0.0000 C   0  0  0  0  0  0  0  0  0  0  0  0
    6.2908    3.9756    0.0000 C   0  0  0  0  0  0  0  0  0  0  0  0
    5.7908    3.1095    0.0000 N   0  0  0  0  0  0  0  0  0  0  0  0
    4.7857    3.1035    0.0000 C   0  0  0  0  0  0  0  0  0  0  0  0
    4.2832    2.2330    0.0000 C   0  0  0  0  0  0  0  0  0  0  0  0
    4.7857    1.3684    0.0000 C   0  0  0  0  0  0  0  0  0  0  0  0
    5.7858    1.3656    0.0000 C   0  0  0  0  0  0  0  0  0  0  0  0
    6.2883    2.2361    0.0000 C   0  0  0  0  0  0  0  0  0  0  0  0
    4.2858    0.5024    0.0000 N   0  0  0  0  0  0  0  0  0  0  0  0
    3.2858    0.5023    0.0000 C   0  0  0  0  0  0  0  0  0  0  0  0
    2.6938    1.3169    0.0000 O   0  0  0  0  0  0  0  0  0  0  0  0
    1.7360    1.0058    0.0000 C   0  0  0  0  0  0  0  0  0  0  0  0
    0.8680    1.5138    0.0000 C   0  0  0  0  0  0  0  0  0  0  0  0
    0.0000    1.0058    0.0000 C   0  0  0  0  0  0  0  0  0  0  0  0
    0.0000    0.0000    0.0000 C   0  0  0  0  0  0  0  0  0  0  0  0
    0.8680   -0.4978    0.0000 C   0  0  0  0  0  0  0  0  0  0  0  0
    1.7360   -0.0012    0.0000 C   0  0  0  0  0  0  0  0  0  0  0  0
    2.6938   -0.3125    0.0000 N   0  0  0  0  0  0  0  0  0  0  0  0
   -0.8653   -0.5013    0.0000 S   0  0  0  0  0  0  0  0  0  0  0  0
   -0.3641   -1.3666    0.0000 O   0  0  0  0  0  0  0  0  0  0  0  0
   -1.3666    0.3641    0.0000 O   0  0  0  0  0  0  0  0  0  0  0  0
   -1.7306   -1.0025    0.0000 N   0  0  0  0  0  0  0  0  0  0  0  0
    7.7907    4.8476    0.0000 C   0  0  0  0  0  0  0  0  0  0  0  0
    8.7959    4.8388    0.0000 C   0  0  0  0  0  0  0  0  0  0  0  0
    9.3009    5.7019    0.0000 O   0  0  0  0  0  0  0  0  0  0  0  0
    8.8060    6.5708    0.0000 C   0  0  0  0  0  0  0  0  0  0  0  0
    9.3110    7.4339    0.0000 C   0  0  0  0  0  0  0  0  0  0  0  0
    9.2959    3.9668    0.0000 C   0  0  0  0  0  0  0  0  0  0  0  0
   10.2959    3.9625    0.0000 N   0  0  0  0  0  0  0  0  0  0  0  0
  1  2  1  0
  2  3  1  0
  3  4  1  0
  4 33  2  0
  4  5  1  0
  5  6  2  0
  6  7  1  0
  7  8  1  0
  8 13  1  0
  8  9  1  0
  9 10  1  0
 10 11  1  0
 11 12  1  0
 12 13  1  0
 11 14  1  0
 14 15  1  0
 15 23  2  0
 15 16  1  0
 16 17  1  0
 17 22  2  0
 17 18  1  0
 18 19  2  0
 19 20  1  0
 20 21  2  0
 21 22  1  0
 22 23  1  0
 20 24  1  0
 24 25  2  0
 24 26  2  0
 24 27  1  0
  6 28  1  0
 28 29  2  0
 29 30  1  0
 30 31  1  0
 31 32  1  0
 29 33  1  0
 33 34  1  0
M  END
>  <SMILES>  (410) 
CCOc1cc(CN2CCC(Nc3nc4cc(S(N)(=O)=O)ccc4o3)CC2)cc(OCC)c1N

>  <CollectionName>  (410) 
chembl

>  <LOG PLASMA PROTEIN BINDING (RAT) (% unbound)>  (410) 
1.03941411918

>  <Internal ID>  (410) 


>  <Source>  (410) 
AstraZeneca

$$$$
CHEMBL576257
     RDKit          2D

 25 27  0  0  1  0  0  0  0  0999 V2000
    2.5995    1.4976    0.0000 C   0  0  0  0  0  0  0  0  0  0  0  0
    1.7350    2.0001    0.0000 C   0  0  0  0  0  0  0  0  0  0  0  0
    1.7379    3.0001    0.0000 N   0  0  0  0  0  0  0  0  0  0  0  0
    2.6054    3.4976    0.0000 C   0  0  0  0  0  0  0  0  0  0  0  0
    3.4729    2.9899    0.0000 N   0  0  0  0  0  0  0  0  0  0  0  0
    4.3404    3.4976    0.0000 C   0  0  0  0  0  0  0  0  0  0  0  0
    5.2079    3.0001    0.0000 N   0  0  0  0  0  0  0  0  0  0  0  0
    5.2109    2.0001    0.0000 C   0  0  0  0  0  0  0  0  0  0  0  0
    4.4018    1.4125    0.0000 C   0  0  0  0  0  0  0  0  0  0  0  0
    4.7136    0.4608    0.0000 C   0  0  0  0  0  0  0  0  0  0  0  0
    4.1269   -0.3490    0.0000 C   0  0  0  0  0  0  0  0  0  0  0  0
    5.7153    0.4609    0.0000 N   0  0  0  0  0  0  0  0  0  0  0  0
    6.0238    1.4170    0.0000 N   0  0  0  0  0  0  0  0  0  0  0  0
    4.3404    4.5028    0.0000 C   0  0  0  0  0  0  0  0  0  0  0  0
    3.4729    5.0003    0.0000 N   0  0  0  0  0  0  0  0  0  0  0  0
    2.6054    4.5028    0.0000 C   0  0  0  0  0  0  0  0  0  0  0  0
    1.7401    5.0040    0.0000 C   0  0  0  0  0  0  0  0  0  0  0  0
    0.8748    5.5053    0.0000 N   0  0  0  0  0  0  0  0  0  0  0  0
    0.8675    1.5027    0.0000 C   0  0  0  0  0  0  0  0  0  0  0  0
    0.8675    0.4975    0.0000 C   0  0  0  0  0  0  0  0  0  0  0  0
    0.0000    0.0000    0.0000 C   0  0  0  0  0  0  0  0  0  0  0  0
   -0.8675    0.4975    0.0000 C   0  0  0  0  0  0  0  0  0  0  0  0
   -1.7328   -0.0038    0.0000 F   0  0  0  0  0  0  0  0  0  0  0  0
   -0.8675    1.5027    0.0000 C   0  0  0  0  0  0  0  0  0  0  0  0
    0.0000    2.0104    0.0000 N   0  0  0  0  0  0  0  0  0  0  0  0
  2  1  1  1
  2  3  1  0
  3  4  1  0
  4 16  1  0
  4  5  2  0
  5  6  1  0
  6  7  1  0
  7  8  1  0
  8 13  2  0
  8  9  1  0
  9 10  2  0
 10 11  1  0
 10 12  1  0
 12 13  1  0
  6 14  2  0
 14 15  1  0
 15 16  2  0
 16 17  1  0
 17 18  3  0
  2 19  1  0
 19 25  1  0
 19 20  2  0
 20 21  1  0
 21 22  2  0
 22 23  1  0
 22 24  1  0
 24 25  2  0
M  END
>  <SMILES>  (411) 
Cc1cc(Nc2cnc(C#N)c(N[C@@H](C)c3ccc(F)cn3)n2)n[nH]1

>  <CollectionName>  (411) 
chembl

>  <LOG PLASMA PROTEIN BINDING (RAT) (% unbound)>  (411) 
1.20411998266

>  <Internal ID>  (411) 


>  <Source>  (411) 
AstraZeneca

$$$$
CHEMBL1945292
     RDKit          2D

 29 31  0  0  1  0  0  0  0  0999 V2000
   -8.6611    6.0496    0.0000 C   0  0  0  0  0  0  0  0  0  0  0  0
   -7.7981    5.5445    0.0000 O   0  0  0  0  0  0  0  0  0  0  0  0
   -6.9291    6.0394    0.0000 C   0  0  0  0  0  0  0  0  0  0  0  0
   -6.0661    5.5343    0.0000 C   0  0  0  0  0  0  0  0  0  0  0  0
   -5.1971    6.0291    0.0000 N   0  0  0  0  0  0  0  0  0  0  0  0
   -4.3340    5.5240    0.0000 C   0  0  0  0  0  0  0  0  0  0  0  0
   -3.4651    6.0189    0.0000 C   0  0  0  0  0  0  0  0  0  0  0  0
   -3.4621    7.0241    0.0000 C   0  0  0  0  0  0  0  0  0  0  0  0
   -2.5931    7.5191    0.0000 C   0  0  0  0  0  0  0  0  0  0  0  0
   -1.7271    7.0190    0.0000 C   0  0  0  0  0  0  0  0  0  0  0  0
   -1.7301    6.0138    0.0000 C   0  0  0  0  0  0  0  0  0  0  0  0
   -0.8641    5.5138    0.0000 C   0  0  0  0  0  0  0  0  0  0  0  0
   -0.8641    4.5138    0.0000 C   0  0  0  0  0  0  0  0  0  0  0  0
    0.0020    4.0138    0.0000 N   0  0  0  0  0  0  0  0  0  0  0  0
    0.0020    3.0138    0.0000 C   0  0  0  0  0  0  0  0  0  0  0  0
    0.8680    2.5138    0.0000 C   0  0  0  0  0  0  0  0  0  0  0  0
    1.7340    3.0138    0.0000 O   0  0  0  0  0  0  0  0  0  0  0  0
    0.8680    1.5138    0.0000 C   0  0  0  0  0  0  0  0  0  0  0  0
    0.0000    1.0058    0.0000 C   0  0  0  0  0  0  0  0  0  0  0  0
    0.0000    0.0000    0.0000 C   0  0  0  0  0  0  0  0  0  0  0  0
    0.8680   -0.4978    0.0000 C   0  0  0  0  0  0  0  0  0  0  0  0
    0.8675   -1.4978    0.0000 O   0  0  0  0  0  0  0  0  0  0  0  0
    1.7360   -0.0012    0.0000 C   0  0  0  0  0  0  0  0  0  0  0  0
    2.6938   -0.3125    0.0000 N   0  0  0  0  0  0  0  0  0  0  0  0
    3.2858    0.5023    0.0000 C   0  0  0  0  0  0  0  0  0  0  0  0
    4.2858    0.5024    0.0000 O   0  0  0  0  0  0  0  0  0  0  0  0
    2.6938    1.3169    0.0000 S   0  0  0  0  0  0  0  0  0  0  0  0
    1.7360    1.0058    0.0000 C   0  0  0  0  0  0  0  0  0  0  0  0
   -2.5991    5.5087    0.0000 C   0  0  0  0  0  0  0  0  0  0  0  0
  1  2  1  0
  2  3  1  0
  3  4  1  0
  4  5  1  0
  5  6  1  0
  6  7  1  0
  7 29  2  0
  7  8  1  0
  8  9  2  0
  9 10  1  0
 10 11  2  0
 11 12  1  0
 12 13  1  0
 13 14  1  0
 14 15  1  0
 15 16  1  0
 16 17  1  6
 16 18  1  0
 18 28  1  0
 18 19  2  0
 19 20  1  0
 20 21  2  0
 21 22  1  0
 21 23  1  0
 23 28  2  0
 23 24  1  0
 24 25  1  0
 25 26  2  0
 25 27  1  0
 27 28  1  0
 11 29  1  0
M  END
>  <SMILES>  (412) 
COCCNCc1cccc(CCNC[C@H](O)c2ccc(O)c3[nH]c(=O)sc23)c1

>  <CollectionName>  (412) 
chembl

>  <LOG PLASMA PROTEIN BINDING (RAT) (% unbound)>  (412) 
1.29468662428

>  <Internal ID>  (412) 


>  <Source>  (412) 
AstraZeneca

$$$$
CHEMBL1957266
     RDKit          2D

 31 34  0  0  1  0  0  0  0  0999 V2000
    2.8315   -3.4158    0.0000 C   0  0  0  0  0  0  0  0  0  0  0  0
    2.0502   -2.7917    0.0000 C   0  0  0  0  0  0  0  0  0  0  0  0
    1.0708   -3.0611    0.0000 S   0  0  0  0  0  0  0  0  0  0  0  0
    0.5121   -2.2129    0.0000 C   0  0  0  0  0  0  0  0  0  0  0  0
    1.1461   -1.4195    0.0000 C   0  0  0  0  0  0  0  0  0  0  0  0
    0.9159   -0.4326    0.0000 C   0  0  0  0  0  0  0  0  0  0  0  0
    0.0000    0.0000    0.0000 N   0  0  0  0  0  0  0  0  0  0  0  0
   -0.9097   -0.4394    0.0000 C   0  0  0  0  0  0  0  0  0  0  0  0
   -1.6945    0.1804    0.0000 C   0  0  0  0  0  0  0  0  0  0  0  0
   -1.5501    1.1699    0.0000 C   0  0  0  0  0  0  0  0  0  0  0  0
   -0.6210    1.5397    0.0000 O   0  0  0  0  0  0  0  0  0  0  0  0
   -2.3349    1.7897    0.0000 O   0  0  0  0  0  0  0  0  0  0  0  0
   -2.1905    2.7792    0.0000 C   0  0  0  0  0  0  0  0  0  0  0  0
   -2.0462    3.7687    0.0000 C   0  0  0  0  0  0  0  0  0  0  0  0
   -3.1801    2.9236    0.0000 C   0  0  0  0  0  0  0  0  0  0  0  0
   -1.2010    2.6349    0.0000 C   0  0  0  0  0  0  0  0  0  0  0  0
   -1.1263   -1.4261    0.0000 C   0  0  0  0  0  0  0  0  0  0  0  0
   -2.0725   -1.7898    0.0000 N   0  0  0  0  0  0  0  0  0  0  0  0
   -2.0190   -2.8023    0.0000 N   0  0  0  0  0  0  0  0  0  0  0  0
   -1.0396   -3.0640    0.0000 C   0  0  0  0  0  0  0  0  0  0  0  0
   -0.6807   -3.9974    0.0000 C   0  0  0  0  0  0  0  0  0  0  0  0
   -0.4879   -2.2137    0.0000 N   0  0  0  0  0  0  0  0  0  0  0  0
    1.6939    0.1957    0.0000 C   0  0  0  0  0  0  0  0  0  0  0  0
    2.6275   -0.1626    0.0000 C   0  0  0  0  0  0  0  0  0  0  0  0
    3.4083    0.4623    0.0000 C   0  0  0  0  0  0  0  0  0  0  0  0
    3.2538    1.4556    0.0000 C   0  0  0  0  0  0  0  0  0  0  0  0
    4.0345    2.0804    0.0000 Cl  0  0  0  0  0  0  0  0  0  0  0  0
    2.3186    1.8239    0.0000 C   0  0  0  0  0  0  0  0  0  0  0  0
    1.5394    1.1889    0.0000 C   0  0  0  0  0  0  0  0  0  0  0  0
    2.0965   -1.7773    0.0000 C   0  0  0  0  0  0  0  0  0  0  0  0
    2.9316   -1.2271    0.0000 C   0  0  0  0  0  0  0  0  0  0  0  0
  1  2  1  0
  2 30  2  0
  2  3  1  0
  3  4  1  0
  4 22  1  0
  4  5  2  0
  5  6  1  0
  6  7  2  0
  7  8  1  0
  8  9  1  6
  9 10  1  0
 10 11  2  0
 10 12  1  0
 12 13  1  0
 13 14  1  0
 13 15  1  0
 13 16  1  0
  8 17  1  0
 17 22  1  0
 17 18  2  0
 18 19  1  0
 19 20  2  0
 20 21  1  0
 20 22  1  0
  6 23  1  0
 23 29  1  0
 23 24  2  0
 24 25  1  0
 25 26  2  0
 26 27  1  0
 26 28  1  0
 28 29  2  0
  5 30  1  0
 30 31  1  0
M  END
>  <SMILES>  (413) 
Cc1sc2c(c1C)C(c1ccc(Cl)cc1)=N[C@@H](CC(=O)OC(C)(C)C)c1nnc(C)n1-2

>  <CollectionName>  (413) 
chembl

>  <LOG PLASMA PROTEIN BINDING (RAT) (% unbound)>  (413) 
0.184691430818

>  <Internal ID>  (413) 


>  <Source>  (413) 
AstraZeneca

$$$$
CHEMBL1957841
     RDKit          2D

 27 31  0  0  0  0  0  0  0  0999 V2000
    0.8680    1.5079    0.0000 O   0  0  0  0  0  0  0  0  0  0  0  0
    0.8680    0.5079    0.0000 C   0  0  0  0  0  0  0  0  0  0  0  0
    0.0000    0.0000    0.0000 C   0  0  0  0  0  0  0  0  0  0  0  0
    0.0000   -1.0058    0.0000 C   0  0  0  0  0  0  0  0  0  0  0  0
    0.8680   -1.5037    0.0000 N   0  0  0  0  0  0  0  0  0  0  0  0
    1.7360   -1.0071    0.0000 C   0  0  0  0  0  0  0  0  0  0  0  0
    2.6938   -1.3184    0.0000 N   0  0  0  0  0  0  0  0  0  0  0  0
    3.0028   -2.2695    0.0000 C   0  0  0  0  0  0  0  0  0  0  0  0
    2.3336   -3.0126    0.0000 C   0  0  0  0  0  0  0  0  0  0  0  0
    1.3472   -2.8064    0.0000 C   0  0  0  0  0  0  0  0  0  0  0  0
    0.6753   -3.5547    0.0000 C   0  0  0  0  0  0  0  0  0  0  0  0
    0.9898   -4.5091    0.0000 C   0  0  0  0  0  0  0  0  0  0  0  0
    1.9682   -4.7157    0.0000 C   0  0  0  0  0  0  0  0  0  0  0  0
    2.2836   -5.6664    0.0000 C   0  0  0  0  0  0  0  0  0  0  0  0
    3.2622   -5.8746    0.0000 C   0  0  0  0  0  0  0  0  0  0  0  0
    3.9332   -5.1255    0.0000 C   0  0  0  0  0  0  0  0  0  0  0  0
    3.6255   -4.1682    0.0000 C   0  0  0  0  0  0  0  0  0  0  0  0
    2.6402   -3.9674    0.0000 C   0  0  0  0  0  0  0  0  0  0  0  0
    3.2858   -0.5036    0.0000 C   0  0  0  0  0  0  0  0  0  0  0  0
    2.6938    0.3110    0.0000 C   0  0  0  0  0  0  0  0  0  0  0  0
    1.7360    0.0000    0.0000 N   0  0  0  0  0  0  0  0  0  0  0  0
   -0.8653   -1.5070    0.0000 N   0  0  0  0  0  0  0  0  0  0  0  0
   -0.8610   -2.5070    0.0000 C   0  0  0  0  0  0  0  0  0  0  0  0
   -1.7308   -3.0109    0.0000 C   0  0  0  0  0  0  0  0  0  0  0  0
   -2.6050   -2.5147    0.0000 O   0  0  0  0  0  0  0  0  0  0  0  0
   -2.6004   -1.5095    0.0000 C   0  0  0  0  0  0  0  0  0  0  0  0
   -1.7306   -1.0057    0.0000 C   0  0  0  0  0  0  0  0  0  0  0  0
  1  2  2  0
  2 21  1  0
  2  3  1  0
  3  4  2  0
  4  5  1  0
  5  6  2  0
  6 21  1  0
  6  7  1  0
  7  8  1  0
  8  9  1  0
  9 18  1  0
  9 10  2  0
 10 11  1  0
 11 12  2  0
 12 13  1  0
 13 18  2  0
 13 14  1  0
 14 15  2  0
 15 16  1  0
 16 17  2  0
 17 18  1  0
  7 19  1  0
 19 20  2  0
 20 21  1  0
  4 22  1  0
 22 27  1  0
 22 23  1  0
 23 24  1  0
 24 25  1  0
 25 26  1  0
 26 27  1  0
M  END
>  <SMILES>  (414) 
O=c1cc(N2CCOCC2)nc2n(Cc3cccc4ccccc34)ccn12

>  <CollectionName>  (414) 
chembl

>  <LOG PLASMA PROTEIN BINDING (RAT) (% unbound)>  (414) 
0.67851837904

>  <Internal ID>  (414) 


>  <Source>  (414) 
AstraZeneca

$$$$
CHEMBL1963462
     RDKit          2D

 24 26  0  0  1  0  0  0  0  0999 V2000
   -0.1340   -2.5000    0.0000 C   0  0  0  0  0  0  0  0  0  0  0  0
    0.8660   -2.5000    0.0000 C   0  0  0  0  0  0  0  0  0  0  0  0
    1.8660   -2.5000    0.0000 C   0  0  0  0  0  0  0  0  0  0  0  0
    2.4555   -1.6902    0.0000 C   0  0  0  0  0  0  0  0  0  0  0  0
    3.4083   -1.9984    0.0000 C   0  0  0  0  0  0  0  0  0  0  0  0
    3.4070   -2.9984    0.0000 C   0  0  0  0  0  0  0  0  0  0  0  0
    2.4572   -3.3120    0.0000 C   0  0  0  0  0  0  0  0  0  0  0  0
    0.8660   -1.5000    0.0000 C   0  0  0  0  0  0  0  0  0  0  0  0
    1.7321   -1.0000    0.0000 O   0  0  0  0  0  0  0  0  0  0  0  0
    0.0000   -1.0000    0.0000 O   0  0  0  0  0  0  0  0  0  0  0  0
    0.0000    0.0000    0.0000 C   0  0  0  0  0  0  0  0  0  0  0  0
   -0.8675    0.4975    0.0000 C   0  0  0  0  0  0  0  0  0  0  0  0
   -0.8675    1.5027    0.0000 C   0  0  0  0  0  0  0  0  0  0  0  0
   -0.0000    2.0104    0.0000 N   0  0  0  0  0  0  0  0  0  0  0  0
   -0.6443    2.7752    0.0000 C   0  0  0  0  0  0  0  0  0  0  0  0
    0.6443    2.7752    0.0000 C   0  0  0  0  0  0  0  0  0  0  0  0
    0.8675    1.5027    0.0000 C   0  0  0  0  0  0  0  0  0  0  0  0
    0.8675    0.4975    0.0000 C   0  0  0  0  0  0  0  0  0  0  0  0
    0.8660   -3.5000    0.0000 C   0  0  0  0  0  0  0  0  0  0  0  0
    1.7380   -4.0000    0.0000 C   0  0  0  0  0  0  0  0  0  0  0  0
    1.7381   -5.0001    0.0000 C   0  0  0  0  0  0  0  0  0  0  0  0
    0.8750   -5.5051    0.0000 C   0  0  0  0  0  0  0  0  0  0  0  0
    0.0030   -5.0051    0.0000 C   0  0  0  0  0  0  0  0  0  0  0  0
   -0.0059   -4.0000    0.0000 C   0  0  0  0  0  0  0  0  0  0  0  0
  2  1  1  6
  2  3  1  0
  3  7  1  0
  3  4  1  0
  4  5  1  0
  5  6  1  0
  6  7  1  0
  2  8  1  0
  8  9  2  0
  8 10  1  0
 10 11  1  0
 11 18  1  0
 11 12  1  0
 12 13  1  0
 13 14  1  0
 14 15  1  0
 14 16  1  0
 14 17  1  0
 17 18  1  0
  2 19  1  0
 19 24  1  0
 19 20  2  0
 20 21  1  0
 21 22  2  0
 22 23  1  0
 23 24  2  0
M  CHG  1  14   1
M  END
>  <SMILES>  (415) 
C[C@@](C(=O)OC1CC[N+](C)(C)CC1)(c1ccccc1)C1CCCC1

>  <CollectionName>  (415) 
chembl

>  <LOG PLASMA PROTEIN BINDING (RAT) (% unbound)>  (415) 
1.58759872972

>  <Internal ID>  (415) 


>  <Source>  (415) 
AstraZeneca

$$$$
CHEMBL1499
     RDKit          2D

 26 29  0  0  1  0  0  0  0  0999 V2000
    1.7357    2.0056    0.0000 C   0  0  0  0  0  0  0  0  0  0  0  0
    1.7358    1.0056    0.0000 C   0  0  0  0  0  0  0  0  0  0  0  0
    0.8679    1.5135    0.0000 C   0  0  0  0  0  0  0  0  0  0  0  0
    0.0000    1.0056    0.0000 C   0  0  0  0  0  0  0  0  0  0  0  0
    0.0000    0.0000    0.0000 C   0  0  0  0  0  0  0  0  0  0  0  0
   -0.8653   -0.5013    0.0000 O   0  0  0  0  0  0  0  0  0  0  0  0
    0.8679   -0.4977    0.0000 C   0  0  0  0  0  0  0  0  0  0  0  0
    1.7371   -0.0000    0.0000 C   0  0  0  0  0  0  0  0  0  0  0  0
    2.6037   -0.4989    0.0000 C   0  0  0  0  0  0  0  0  0  0  0  0
    3.4748    0.0023    0.0000 C   0  0  0  0  0  0  0  0  0  0  0  0
    3.4759    1.0071    0.0000 C   0  0  0  0  0  0  0  0  0  0  0  0
    4.3477    1.5084    0.0000 C   0  0  0  0  0  0  0  0  0  0  0  0
    6.0915    1.5061    0.0000 C   0  0  0  0  0  0  0  0  0  0  0  0
    6.0928    2.5162    0.0000 C   0  0  0  0  0  0  0  0  0  0  0  0
    5.2187    3.0279    0.0000 C   0  0  0  0  0  0  0  0  0  0  0  0
    4.5742    3.7925    0.0000 O   0  0  0  0  0  0  0  0  0  0  0  0
    5.8629    3.7927    0.0000 C   0  0  0  0  0  0  0  0  0  0  0  0
    5.5227    4.7331    0.0000 O   0  0  0  0  0  0  0  0  0  0  0  0
    6.8474    3.6172    0.0000 C   0  0  0  0  0  0  0  0  0  0  0  0
    7.4917    4.3820    0.0000 O   0  0  0  0  0  0  0  0  0  0  0  0
    4.3490    2.5184    0.0000 C   0  0  0  0  0  0  0  0  0  0  0  0
    5.2163    2.0206    0.0000 C   0  0  0  0  0  0  0  0  0  0  0  0
    3.4743    3.0237    0.0000 C   0  0  0  0  0  0  0  0  0  0  0  0
    2.5967    2.5196    0.0000 C   0  0  0  0  0  0  0  0  0  0  0  0
    1.7301    3.0186    0.0000 O   0  0  0  0  0  0  0  0  0  0  0  0
    2.6012    1.5123    0.0000 C   0  0  0  0  0  0  0  0  0  0  0  0
  2  1  1  1
  2  8  1  0
  2 26  1  0
  2  3  1  0
  3  4  1  0
  4  5  1  0
  5  6  2  0
  5  7  1  0
  7  8  2  0
  8  9  1  0
  9 10  1  0
 11 10  1  6
 11 26  1  0
 11 12  1  0
 12 21  1  0
 12 13  1  1
 13 14  1  0
 14 15  1  0
 15 16  1  6
 15 17  1  0
 17 18  2  0
 17 19  1  0
 19 20  1  0
 15 21  1  0
 21 22  1  1
 21 23  1  0
 23 24  1  0
 24 25  2  0
 26 24  1  1
M  END
>  <SMILES>  (416) 
C[C@]12CCC(=O)C=C1CC[C@@H]1[C@@H]2C(=O)C[C@@]2(C)[C@H]1CC[C@]2(O)C(=O)CO

>  <CollectionName>  (416) 
chembl

>  <LOG PLASMA PROTEIN BINDING (RAT) (% unbound)>  (416) 
1.59361830813

>  <Internal ID>  (416) 


>  <Source>  (416) 
AstraZeneca

$$$$
CHEMBL65693
     RDKit          2D

 28 31  0  0  0  0  0  0  0  0999 V2000
   -2.5966    0.4982    0.0000 C   0  0  0  0  0  0  0  0  0  0  0  0
   -1.7320    1.0008    0.0000 S   0  0  0  0  0  0  0  0  0  0  0  0
   -2.2346    1.8653    0.0000 O   0  0  0  0  0  0  0  0  0  0  0  0
   -1.2295    0.1362    0.0000 O   0  0  0  0  0  0  0  0  0  0  0  0
   -0.8675    1.5033    0.0000 N   0  0  0  0  0  0  0  0  0  0  0  0
    0.0000    1.0058    0.0000 C   0  0  0  0  0  0  0  0  0  0  0  0
    0.0000    0.0000    0.0000 C   0  0  0  0  0  0  0  0  0  0  0  0
    0.8680   -0.4979    0.0000 C   0  0  0  0  0  0  0  0  0  0  0  0
    1.7360   -0.0013    0.0000 C   0  0  0  0  0  0  0  0  0  0  0  0
    2.6938   -0.3126    0.0000 N   0  0  0  0  0  0  0  0  0  0  0  0
    3.2858    0.5022    0.0000 C   0  0  0  0  0  0  0  0  0  0  0  0
    4.2858    0.5023    0.0000 C   0  0  0  0  0  0  0  0  0  0  0  0
    4.7859   -0.3637    0.0000 C   0  0  0  0  0  0  0  0  0  0  0  0
    4.2871   -1.2305    0.0000 C   0  0  0  0  0  0  0  0  0  0  0  0
    4.7834   -2.0987    0.0000 C   0  0  0  0  0  0  0  0  0  0  0  0
    5.7886   -2.1001    0.0000 C   0  0  0  0  0  0  0  0  0  0  0  0
    6.2849   -2.9683    0.0000 O   0  0  0  0  0  0  0  0  0  0  0  0
    5.7811   -3.8322    0.0000 C   0  0  0  0  0  0  0  0  0  0  0  0
    6.2825   -4.7034    0.0000 C   0  0  0  0  0  0  0  0  0  0  0  0
    5.7788   -5.5673    0.0000 C   0  0  0  0  0  0  0  0  0  0  0  0
    4.7787   -5.5688    0.0000 C   0  0  0  0  0  0  0  0  0  0  0  0
    4.2773   -4.6976    0.0000 C   0  0  0  0  0  0  0  0  0  0  0  0
    4.7760   -3.8248    0.0000 C   0  0  0  0  0  0  0  0  0  0  0  0
    6.2975   -1.2333    0.0000 C   0  0  0  0  0  0  0  0  0  0  0  0
    5.7910   -0.3651    0.0000 C   0  0  0  0  0  0  0  0  0  0  0  0
    2.6938    1.3168    0.0000 N   0  0  0  0  0  0  0  0  0  0  0  0
    1.7360    1.0058    0.0000 C   0  0  0  0  0  0  0  0  0  0  0  0
    0.8680    1.5137    0.0000 C   0  0  0  0  0  0  0  0  0  0  0  0
  1  2  1  0
  2  3  2  0
  2  4  2  0
  2  5  1  0
  5  6  1  0
  6 28  2  0
  6  7  1  0
  7  8  2  0
  8  9  1  0
  9 27  2  0
  9 10  1  0
 10 11  1  0
 11 12  1  0
 12 13  1  0
 13 25  1  0
 13 14  2  0
 14 15  1  0
 15 16  2  0
 16 17  1  0
 17 18  1  0
 18 23  1  0
 18 19  2  0
 19 20  1  0
 20 21  2  0
 21 22  1  0
 22 23  2  0
 16 24  1  0
 24 25  2  0
 11 26  2  0
 26 27  1  0
 27 28  1  0
M  END
>  <SMILES>  (417) 
CS(=O)(=O)Nc1ccc2[nH]c(Cc3ccc(Oc4ccccc4)cc3)nc2c1

>  <CollectionName>  (417) 
chembl

>  <LOG PLASMA PROTEIN BINDING (RAT) (% unbound)>  (417) 
-0.214670164989

>  <Internal ID>  (417) 


>  <Source>  (417) 
AstraZeneca

$$$$
CHEMBL212521
     RDKit          2D

 23 24  0  0  1  0  0  0  0  0999 V2000
    7.7943    7.5129    0.0000 C   0  0  0  0  0  0  0  0  0  0  0  0
    6.9290    7.0116    0.0000 C   0  0  0  0  0  0  0  0  0  0  0  0
    6.9305    6.0116    0.0000 C   0  0  0  0  0  0  0  0  0  0  0  0
    7.7972    5.5129    0.0000 N   0  0  0  0  0  0  0  0  0  0  0  0
    6.0652    5.5104    0.0000 C   0  0  0  0  0  0  0  0  0  0  0  0
    5.1984    6.0091    0.0000 O   0  0  0  0  0  0  0  0  0  0  0  0
    6.0666    4.5104    0.0000 N   0  0  0  0  0  0  0  0  0  0  0  0
    5.2013    4.0091    0.0000 C   0  0  0  0  0  0  0  0  0  0  0  0
    5.2028    3.0091    0.0000 C   0  0  0  0  0  0  0  0  0  0  0  0
    4.3375    2.5078    0.0000 C   0  0  0  0  0  0  0  0  0  0  0  0
    3.4700    3.0053    0.0000 C   0  0  0  0  0  0  0  0  0  0  0  0
    2.6025    2.5078    0.0000 C   0  0  0  0  0  0  0  0  0  0  0  0
    2.6025    1.5026    0.0000 C   0  0  0  0  0  0  0  0  0  0  0  0
    3.4700    0.9949    0.0000 C   0  0  0  0  0  0  0  0  0  0  0  0
    4.3375    1.5026    0.0000 C   0  0  0  0  0  0  0  0  0  0  0  0
    1.7350    1.0052    0.0000 C   0  0  0  0  0  0  0  0  0  0  0  0
    1.7350   -0.0000    0.0000 C   0  0  0  0  0  0  0  0  0  0  0  0
    0.8675   -0.4975    0.0000 C   0  0  0  0  0  0  0  0  0  0  0  0
    0.0000    0.0000    0.0000 C   0  0  0  0  0  0  0  0  0  0  0  0
    0.0000    1.0052    0.0000 C   0  0  0  0  0  0  0  0  0  0  0  0
    0.8675    1.5129    0.0000 C   0  0  0  0  0  0  0  0  0  0  0  0
    4.3346    4.5078    0.0000 C   0  0  0  0  0  0  0  0  0  0  0  0
    3.4678    5.0066    0.0000 N   0  0  0  0  0  0  0  0  0  0  0  0
  1  2  1  0
  2  3  1  0
  3  4  1  6
  3  5  1  0
  5  6  2  0
  5  7  1  0
  7  8  1  0
  8  9  1  1
  9 10  1  0
 10 15  2  0
 10 11  1  0
 11 12  2  0
 12 13  1  0
 13 14  2  0
 14 15  1  0
 13 16  1  0
 16 21  1  0
 16 17  2  0
 17 18  1  0
 18 19  2  0
 19 20  1  0
 20 21  2  0
  8 22  1  0
 22 23  3  0
M  END
>  <SMILES>  (418) 
CC[C@H](N)C(=O)N[C@H](C#N)Cc1ccc(-c2ccccc2)cc1

>  <CollectionName>  (418) 
chembl

>  <LOG PLASMA PROTEIN BINDING (RAT) (% unbound)>  (418) 
0.885361220032

>  <Internal ID>  (418) 


>  <Source>  (418) 
AstraZeneca

$$$$
CHEMBL560219
     RDKit          2D

 29 31  0  0  0  0  0  0  0  0999 V2000
    6.0855    1.4875    0.0000 O   0  0  0  0  0  0  0  0  0  0  0  0
    5.2168    0.9922    0.0000 C   0  0  0  0  0  0  0  0  0  0  0  0
    4.3535    1.4968    0.0000 C   0  0  0  0  0  0  0  0  0  0  0  0
    3.4848    1.0014    0.0000 N   0  0  0  0  0  0  0  0  0  0  0  0
    3.4805   -0.0073    0.0000 C   0  0  0  0  0  0  0  0  0  0  0  0
    2.6039   -0.5053    0.0000 C   0  0  0  0  0  0  0  0  0  0  0  0
    1.7371    0.0000    0.0000 C   0  0  0  0  0  0  0  0  0  0  0  0
    0.8707   -0.4993    0.0000 C   0  0  0  0  0  0  0  0  0  0  0  0
    0.8718   -1.4993    0.0000 N   0  0  0  0  0  0  0  0  0  0  0  0
    0.0063   -2.0002    0.0000 C   0  0  0  0  0  0  0  0  0  0  0  0
   -0.8603   -1.5012    0.0000 O   0  0  0  0  0  0  0  0  0  0  0  0
    0.0073   -3.0002    0.0000 C   0  0  0  0  0  0  0  0  0  0  0  0
   -0.8581   -3.5012    0.0000 C   0  0  0  0  0  0  0  0  0  0  0  0
   -1.7277   -2.9969    0.0000 C   0  0  0  0  0  0  0  0  0  0  0  0
   -2.5933   -3.4978    0.0000 C   0  0  0  0  0  0  0  0  0  0  0  0
   -2.5980   -4.4978    0.0000 C   0  0  0  0  0  0  0  0  0  0  0  0
   -3.4657   -4.9949    0.0000 Cl  0  0  0  0  0  0  0  0  0  0  0  0
   -1.7285   -5.0021    0.0000 C   0  0  0  0  0  0  0  0  0  0  0  0
   -0.8541   -4.5063    0.0000 C   0  0  0  0  0  0  0  0  0  0  0  0
   -1.7333   -6.0021    0.0000 C   0  0  0  0  0  0  0  0  0  0  0  0
   -0.7333   -6.0069    0.0000 F   0  0  0  0  0  0  0  0  0  0  0  0
   -2.7333   -5.9972    0.0000 F   0  0  0  0  0  0  0  0  0  0  0  0
   -1.7381   -7.0020    0.0000 F   0  0  0  0  0  0  0  0  0  0  0  0
    0.0000    0.0000    0.0000 C   0  0  0  0  0  0  0  0  0  0  0  0
    0.0000    1.0089    0.0000 C   0  0  0  0  0  0  0  0  0  0  0  0
    0.8707    1.5185    0.0000 C   0  0  0  0  0  0  0  0  0  0  0  0
    1.7414    1.0089    0.0000 C   0  0  0  0  0  0  0  0  0  0  0  0
    2.6125    1.5125    0.0000 C   0  0  0  0  0  0  0  0  0  0  0  0
    2.6154    2.5125    0.0000 O   0  0  0  0  0  0  0  0  0  0  0  0
  1  2  1  0
  2  3  1  0
  3  4  1  0
  4 28  1  0
  4  5  1  0
  5  6  2  0
  6  7  1  0
  7 27  2  0
  7  8  1  0
  8  9  1  0
  9 10  1  0
 10 11  2  0
 10 12  1  0
 12 13  1  0
 13 19  1  0
 13 14  2  0
 14 15  1  0
 15 16  2  0
 16 17  1  0
 16 18  1  0
 18 19  2  0
 18 20  1  0
 20 21  1  0
 20 22  1  0
 20 23  1  0
  8 24  2  0
 24 25  1  0
 25 26  2  0
 26 27  1  0
 27 28  1  0
 28 29  2  0
M  END
>  <SMILES>  (419) 
O=C(Cc1ccc(Cl)c(C(F)(F)F)c1)Nc1cccc2c(=O)n(CCO)ccc12

>  <CollectionName>  (419) 
chembl

>  <LOG PLASMA PROTEIN BINDING (RAT) (% unbound)>  (419) 
0.857332496431

>  <Internal ID>  (419) 


>  <Source>  (419) 
AstraZeneca

$$$$
CHEMBL569720
     RDKit          2D

 26 28  0  0  1  0  0  0  0  0999 V2000
    3.4670    1.0001    0.0000 C   0  0  0  0  0  0  0  0  0  0  0  0
    2.6025    1.5026    0.0000 C   0  0  0  0  0  0  0  0  0  0  0  0
    2.6054    2.5026    0.0000 N   0  0  0  0  0  0  0  0  0  0  0  0
    3.4729    3.0001    0.0000 C   0  0  0  0  0  0  0  0  0  0  0  0
    4.3404    2.4924    0.0000 N   0  0  0  0  0  0  0  0  0  0  0  0
    5.2079    3.0001    0.0000 C   0  0  0  0  0  0  0  0  0  0  0  0
    6.0754    2.5026    0.0000 N   0  0  0  0  0  0  0  0  0  0  0  0
    6.0784    1.5026    0.0000 C   0  0  0  0  0  0  0  0  0  0  0  0
    5.2693    0.9150    0.0000 C   0  0  0  0  0  0  0  0  0  0  0  0
    5.5811   -0.0367    0.0000 C   0  0  0  0  0  0  0  0  0  0  0  0
    4.9944   -0.8465    0.0000 C   0  0  0  0  0  0  0  0  0  0  0  0
    6.5828   -0.0366    0.0000 N   0  0  0  0  0  0  0  0  0  0  0  0
    6.8913    0.9195    0.0000 N   0  0  0  0  0  0  0  0  0  0  0  0
    5.2079    4.0053    0.0000 C   0  0  0  0  0  0  0  0  0  0  0  0
    6.0732    4.5065    0.0000 C   0  0  0  0  0  0  0  0  0  0  0  0
    4.3404    4.5028    0.0000 N   0  0  0  0  0  0  0  0  0  0  0  0
    3.4729    4.0053    0.0000 C   0  0  0  0  0  0  0  0  0  0  0  0
    2.6076    4.5065    0.0000 C   0  0  0  0  0  0  0  0  0  0  0  0
    1.7423    5.0078    0.0000 N   0  0  0  0  0  0  0  0  0  0  0  0
    1.7350    1.0052    0.0000 C   0  0  0  0  0  0  0  0  0  0  0  0
    0.8675    1.5129    0.0000 N   0  0  0  0  0  0  0  0  0  0  0  0
    0.0000    1.0052    0.0000 C   0  0  0  0  0  0  0  0  0  0  0  0
    0.0000    0.0000    0.0000 C   0  0  0  0  0  0  0  0  0  0  0  0
   -0.8653   -0.5013    0.0000 F   0  0  0  0  0  0  0  0  0  0  0  0
    0.8675   -0.4975    0.0000 C   0  0  0  0  0  0  0  0  0  0  0  0
    1.7350    0.0000    0.0000 N   0  0  0  0  0  0  0  0  0  0  0  0
  2  1  1  1
  2  3  1  0
  3  4  1  0
  4 17  1  0
  4  5  2  0
  5  6  1  0
  6  7  1  0
  7  8  1  0
  8 13  2  0
  8  9  1  0
  9 10  2  0
 10 11  1  0
 10 12  1  0
 12 13  1  0
  6 14  2  0
 14 15  1  0
 14 16  1  0
 16 17  2  0
 17 18  1  0
 18 19  3  0
  2 20  1  0
 20 26  1  0
 20 21  2  0
 21 22  1  0
 22 23  2  0
 23 24  1  0
 23 25  1  0
 25 26  2  0
M  END
>  <SMILES>  (420) 
Cc1cc(Nc2nc(N[C@@H](C)c3ncc(F)cn3)c(C#N)nc2C)n[nH]1

>  <CollectionName>  (420) 
chembl

>  <LOG PLASMA PROTEIN BINDING (RAT) (% unbound)>  (420) 
1.54332290065

>  <Internal ID>  (420) 


>  <Source>  (420) 
AstraZeneca

$$$$
CHEMBL1916279
     RDKit          2D

 31 33  0  0  0  0  0  0  0  0999 V2000
   -0.0250   -5.9815    0.0000 C   0  0  0  0  0  0  0  0  0  0  0  0
    0.3869   -5.0703    0.0000 C   0  0  0  0  0  0  0  0  0  0  0  0
   -0.1952   -4.2571    0.0000 C   0  0  0  0  0  0  0  0  0  0  0  0
    0.2127   -3.3441    0.0000 C   0  0  0  0  0  0  0  0  0  0  0  0
    1.2128   -3.2431    0.0000 C   0  0  0  0  0  0  0  0  0  0  0  0
    1.8050   -4.0553    0.0000 C   0  0  0  0  0  0  0  0  0  0  0  0
    1.3870   -4.9694    0.0000 C   0  0  0  0  0  0  0  0  0  0  0  0
    1.6206   -2.3301    0.0000 S   0  0  0  0  0  0  0  0  0  0  0  0
    2.5337   -2.7379    0.0000 O   0  0  0  0  0  0  0  0  0  0  0  0
    0.7076   -1.9222    0.0000 O   0  0  0  0  0  0  0  0  0  0  0  0
    2.0284   -1.4170    0.0000 N   0  0  0  0  0  0  0  0  0  0  0  0
    1.0015   -0.0000    0.0000 C   0  0  0  0  0  0  0  0  0  0  0  0
    0.0000    0.0000    0.0000 C   0  0  0  0  0  0  0  0  0  0  0  0
   -1.0305   -1.4144    0.0000 C   0  0  0  0  0  0  0  0  0  0  0  0
   -0.6250   -2.3285    0.0000 O   0  0  0  0  0  0  0  0  0  0  0  0
   -2.0249   -1.3086    0.0000 N   0  0  0  0  0  0  0  0  0  0  0  0
   -2.6137   -2.1168    0.0000 C   0  0  0  0  0  0  0  0  0  0  0  0
   -3.6081   -2.0110    0.0000 C   0  0  0  0  0  0  0  0  0  0  0  0
   -4.6025   -1.9051    0.0000 C   0  0  0  0  0  0  0  0  0  0  0  0
   -3.5023   -1.0166    0.0000 C   0  0  0  0  0  0  0  0  0  0  0  0
   -3.7140   -3.0053    0.0000 C   0  0  0  0  0  0  0  0  0  0  0  0
   -0.3065    0.9519    0.0000 C   0  0  0  0  0  0  0  0  0  0  0  0
   -1.2577    1.2605    0.0000 C   0  0  0  0  0  0  0  0  0  0  0  0
    0.5008    1.5428    0.0000 N   0  0  0  0  0  0  0  0  0  0  0  0
    1.3133    0.9519    0.0000 N   0  0  0  0  0  0  0  0  0  0  0  0
    2.2648    1.2596    0.0000 C   0  0  0  0  0  0  0  0  0  0  0  0
    2.4723    2.2431    0.0000 C   0  0  0  0  0  0  0  0  0  0  0  0
    3.4238    2.5508    0.0000 C   0  0  0  0  0  0  0  0  0  0  0  0
    4.1699    1.8850    0.0000 C   0  0  0  0  0  0  0  0  0  0  0  0
    3.9624    0.9014    0.0000 C   0  0  0  0  0  0  0  0  0  0  0  0
    3.0088    0.5837    0.0000 C   0  0  0  0  0  0  0  0  0  0  0  0
  1  2  1  0
  2  7  2  0
  2  3  1  0
  3  4  2  0
  4  5  1  0
  5  6  2  0
  6  7  1  0
  5  8  1  0
  8  9  2  0
  8 10  2  0
  8 11  1  0
 11 12  1  0
 12 25  1  0
 12 13  2  0
 13 14  1  0
 14 15  2  0
 14 16  1  0
 16 17  1  0
 17 18  1  0
 18 19  1  0
 18 20  1  0
 18 21  1  0
 13 22  1  0
 22 23  1  0
 22 24  2  0
 24 25  1  0
 25 26  1  0
 26 31  1  0
 26 27  2  0
 27 28  1  0
 28 29  2  0
 29 30  1  0
 30 31  2  0
M  END
>  <SMILES>  (421) 
Cc1ccc(S(=O)(=O)Nc2c(C(=O)NCC(C)(C)C)c(C)nn2-c2ccccc2)cc1

>  <CollectionName>  (421) 
chembl

>  <LOG PLASMA PROTEIN BINDING (RAT) (% unbound)>  (421) 
0.525044807037

>  <Internal ID>  (421) 


>  <Source>  (421) 
AstraZeneca

$$$$
CHEMBL1916283
     RDKit          2D

 32 34  0  0  1  0  0  0  0  0999 V2000
   -2.2082   -3.0309    0.0000 C   0  0  0  0  0  0  0  0  0  0  0  0
   -2.6137   -2.1168    0.0000 C   0  0  0  0  0  0  0  0  0  0  0  0
   -2.0249   -1.3086    0.0000 N   0  0  0  0  0  0  0  0  0  0  0  0
   -1.0305   -1.4144    0.0000 C   0  0  0  0  0  0  0  0  0  0  0  0
   -0.6250   -2.3285    0.0000 O   0  0  0  0  0  0  0  0  0  0  0  0
    0.0000    0.0000    0.0000 C   0  0  0  0  0  0  0  0  0  0  0  0
   -0.3065    0.9519    0.0000 C   0  0  0  0  0  0  0  0  0  0  0  0
   -1.2577    1.2605    0.0000 C   0  0  0  0  0  0  0  0  0  0  0  0
    0.5008    1.5428    0.0000 N   0  0  0  0  0  0  0  0  0  0  0  0
    1.3133    0.9519    0.0000 N   0  0  0  0  0  0  0  0  0  0  0  0
    1.0015   -0.0000    0.0000 C   0  0  0  0  0  0  0  0  0  0  0  0
    2.0284   -1.4170    0.0000 N   0  0  0  0  0  0  0  0  0  0  0  0
    1.6206   -2.3301    0.0000 S   0  0  0  0  0  0  0  0  0  0  0  0
    2.5337   -2.7379    0.0000 O   0  0  0  0  0  0  0  0  0  0  0  0
    0.7076   -1.9222    0.0000 O   0  0  0  0  0  0  0  0  0  0  0  0
    1.2128   -3.2431    0.0000 C   0  0  0  0  0  0  0  0  0  0  0  0
    0.2127   -3.3441    0.0000 C   0  0  0  0  0  0  0  0  0  0  0  0
   -0.1952   -4.2571    0.0000 C   0  0  0  0  0  0  0  0  0  0  0  0
    0.3869   -5.0703    0.0000 C   0  0  0  0  0  0  0  0  0  0  0  0
   -0.0250   -5.9815    0.0000 C   0  0  0  0  0  0  0  0  0  0  0  0
    1.3870   -4.9694    0.0000 C   0  0  0  0  0  0  0  0  0  0  0  0
    1.8050   -4.0553    0.0000 C   0  0  0  0  0  0  0  0  0  0  0  0
    2.2648    1.2596    0.0000 C   0  0  0  0  0  0  0  0  0  0  0  0
    2.4723    2.2431    0.0000 C   0  0  0  0  0  0  0  0  0  0  0  0
    3.4238    2.5508    0.0000 C   0  0  0  0  0  0  0  0  0  0  0  0
    4.1699    1.8850    0.0000 C   0  0  0  0  0  0  0  0  0  0  0  0
    3.9624    0.9014    0.0000 C   0  0  0  0  0  0  0  0  0  0  0  0
    3.0088    0.5837    0.0000 C   0  0  0  0  0  0  0  0  0  0  0  0
   -3.6081   -2.0110    0.0000 C   0  0  0  0  0  0  0  0  0  0  0  0
   -4.6025   -1.9051    0.0000 C   0  0  0  0  0  0  0  0  0  0  0  0
   -3.5023   -1.0166    0.0000 C   0  0  0  0  0  0  0  0  0  0  0  0
   -3.7140   -3.0053    0.0000 C   0  0  0  0  0  0  0  0  0  0  0  0
  2  1  1  6
  2  3  1  0
  3  4  1  0
  4  5  2  0
  4  6  1  0
  6 11  2  0
  6  7  1  0
  7  8  1  0
  7  9  2  0
  9 10  1  0
 10 11  1  0
 11 12  1  0
 12 13  1  0
 13 14  2  0
 13 15  2  0
 13 16  1  0
 16 22  1  0
 16 17  2  0
 17 18  1  0
 18 19  2  0
 19 20  1  0
 19 21  1  0
 21 22  2  0
 10 23  1  0
 23 28  1  0
 23 24  2  0
 24 25  1  0
 25 26  2  0
 26 27  1  0
 27 28  2  0
  2 29  1  0
 29 30  1  0
 29 31  1  0
 29 32  1  0
M  END
>  <SMILES>  (422) 
Cc1ccc(S(=O)(=O)Nc2c(C(=O)N[C@H](C)C(C)(C)C)c(C)nn2-c2ccccc2)cc1

>  <CollectionName>  (422) 
chembl

>  <LOG PLASMA PROTEIN BINDING (RAT) (% unbound)>  (422) 
0.5728716022

>  <Internal ID>  (422) 


>  <Source>  (422) 
AstraZeneca

$$$$
CHEMBL1922267
     RDKit          2D

 30 34  0  0  1  0  0  0  0  0999 V2000
    2.6114   -2.5042    0.0000 C   0  0  0  0  0  0  0  0  0  0  0  0
    2.6102   -1.5042    0.0000 C   0  0  0  0  0  0  0  0  0  0  0  0
    1.7418   -1.0055    0.0000 C   0  0  0  0  0  0  0  0  0  0  0  0
    0.8754   -1.5086    0.0000 C   0  0  0  0  0  0  0  0  0  0  0  0
    0.0042   -1.0111    0.0000 N   0  0  0  0  0  0  0  0  0  0  0  0
   -0.8596   -1.5149    0.0000 C   0  0  0  0  0  0  0  0  0  0  0  0
   -1.7278   -1.0188    0.0000 C   0  0  0  0  0  0  0  0  0  0  0  0
   -2.5916   -1.5226    0.0000 N   0  0  0  0  0  0  0  0  0  0  0  0
   -2.5843   -2.5226    0.0000 C   0  0  0  0  0  0  0  0  0  0  0  0
   -3.4526   -3.0291    0.0000 C   0  0  0  0  0  0  0  0  0  0  0  0
   -4.3282   -2.5356    0.0000 O   0  0  0  0  0  0  0  0  0  0  0  0
   -4.3267   -1.5304    0.0000 C   0  0  0  0  0  0  0  0  0  0  0  0
   -3.4585   -1.0240    0.0000 C   0  0  0  0  0  0  0  0  0  0  0  0
    0.0000    0.0000    0.0000 C   0  0  0  0  0  0  0  0  0  0  0  0
    0.8719    0.5038    0.0000 C   0  0  0  0  0  0  0  0  0  0  0  0
    1.7424    0.0018    0.0000 C   0  0  0  0  0  0  0  0  0  0  0  0
    2.6115    0.5047    0.0000 C   0  0  0  0  0  0  0  0  0  0  0  0
    3.4792    0.0014    0.0000 C   0  0  0  0  0  0  0  0  0  0  0  0
    4.3407    0.5126    0.0000 N   0  0  0  0  0  0  0  0  0  0  0  0
    5.2154    0.0036    0.0000 C   0  0  0  0  0  0  0  0  0  0  0  0
    6.0808    0.5048    0.0000 C   0  0  0  0  0  0  0  0  0  0  0  0
    6.9498    0.0070    0.0000 C   0  0  0  0  0  0  0  0  0  0  0  0
    6.9528   -1.0022    0.0000 C   0  0  0  0  0  0  0  0  0  0  0  0
    6.0818   -1.5041    0.0000 C   0  0  0  0  0  0  0  0  0  0  0  0
    5.2135   -1.0018    0.0000 C   0  0  0  0  0  0  0  0  0  0  0  0
    3.4762   -1.0040    0.0000 C   0  0  0  0  0  0  0  0  0  0  0  0
    7.8194   -1.5013    0.0000 C   0  0  0  0  0  0  0  0  0  0  0  0
    8.3184   -0.6347    0.0000 F   0  0  0  0  0  0  0  0  0  0  0  0
    7.3203   -2.3678    0.0000 F   0  0  0  0  0  0  0  0  0  0  0  0
    8.6859   -2.0004    0.0000 F   0  0  0  0  0  0  0  0  0  0  0  0
  2  1  1  1
  2 26  1  0
  2  3  1  0
  3 16  1  0
  3  4  1  6
  4  5  1  0
  5  6  1  0
  6  7  1  0
  7  8  1  0
  8 13  1  0
  8  9  1  0
  9 10  1  0
 10 11  1  0
 11 12  1  0
 12 13  1  0
  5 14  1  0
 14 15  1  0
 16 15  1  1
 16 17  1  0
 17 18  1  0
 18 26  2  0
 18 19  1  0
 19 20  1  0
 20 25  2  0
 20 21  1  0
 21 22  2  0
 22 23  1  0
 23 24  2  0
 24 25  1  0
 25 26  1  0
 23 27  1  0
 27 28  1  0
 27 29  1  0
 27 30  1  0
M  END
>  <SMILES>  (423) 
C[C@@H]1c2c([nH]c3ccc(C(F)(F)F)cc23)C[C@@H]2CCN(CCN3CCOCC3)C[C@H]21

>  <CollectionName>  (423) 
chembl

>  <LOG PLASMA PROTEIN BINDING (RAT) (% unbound)>  (423) 
0.495544337546

>  <Internal ID>  (423) 


>  <Source>  (423) 
AstraZeneca

$$$$
CHEMBL1924047
     RDKit          2D

 33 37  0  0  1  0  0  0  0  0999 V2000
    3.9215   -0.9696    0.0000 C   0  0  0  0  0  0  0  0  0  0  0  0
    3.0562   -0.4684    0.0000 C   0  0  0  0  0  0  0  0  0  0  0  0
    3.9334    1.0459    0.0000 N   0  0  0  0  0  0  0  0  0  0  0  0
    4.9386    1.0504    0.0000 C   0  0  0  0  0  0  0  0  0  0  0  0
    5.4424    1.9202    0.0000 C   0  0  0  0  0  0  0  0  0  0  0  0
    4.9412    2.7855    0.0000 C   0  0  0  0  0  0  0  0  0  0  0  0
    3.9411    2.7899    0.0000 C   0  0  0  0  0  0  0  0  0  0  0  0
    3.4373    1.9201    0.0000 C   0  0  0  0  0  0  0  0  0  0  0  0
    2.1909    0.0329    0.0000 C   0  0  0  0  0  0  0  0  0  0  0  0
    2.1924    1.0329    0.0000 O   0  0  0  0  0  0  0  0  0  0  0  0
    1.3242   -0.4659    0.0000 O   0  0  0  0  0  0  0  0  0  0  0  0
    0.4589    0.0354    0.0000 C   0  0  0  0  0  0  0  0  0  0  0  0
    0.4589    1.4385    0.0000 C   0  0  0  0  0  0  0  0  0  0  0  0
   -0.7521    2.1473    0.0000 N   0  0  0  0  0  0  0  0  0  0  0  0
   -0.7521    3.1473    0.0000 C   0  0  0  0  0  0  0  0  0  0  0  0
    0.1139    3.6473    0.0000 C   0  0  0  0  0  0  0  0  0  0  0  0
    0.1139    4.6473    0.0000 C   0  0  0  0  0  0  0  0  0  0  0  0
   -0.7581    5.1473    0.0000 C   0  0  0  0  0  0  0  0  0  0  0  0
   -0.7581    6.1474    0.0000 C   0  0  0  0  0  0  0  0  0  0  0  0
    0.1050    6.6524    0.0000 C   0  0  0  0  0  0  0  0  0  0  0  0
    0.9770    6.1524    0.0000 C   0  0  0  0  0  0  0  0  0  0  0  0
    0.9859    5.1473    0.0000 C   0  0  0  0  0  0  0  0  0  0  0  0
    0.0282    1.4032    0.0000 C   0  0  0  0  0  0  0  0  0  0  0  0
    0.0000    0.0000    0.0000 C   0  0  0  0  0  0  0  0  0  0  0  0
   -0.7521   -0.6591    0.0000 C   0  0  0  0  0  0  0  0  0  0  0  0
   -1.9631    0.0354    0.0000 C   0  0  0  0  0  0  0  0  0  0  0  0
   -1.9631    1.4385    0.0000 C   0  0  0  0  0  0  0  0  0  0  0  0
    2.1791   -1.9826    0.0000 C   0  0  0  0  0  0  0  0  0  0  0  0
    2.6830   -2.8524    0.0000 C   0  0  0  0  0  0  0  0  0  0  0  0
    2.1817   -3.7178    0.0000 C   0  0  0  0  0  0  0  0  0  0  0  0
    1.1817   -3.7222    0.0000 C   0  0  0  0  0  0  0  0  0  0  0  0
    0.6778   -2.8524    0.0000 C   0  0  0  0  0  0  0  0  0  0  0  0
    1.1739   -1.9782    0.0000 C   0  0  0  0  0  0  0  0  0  0  0  0
  2  1  1  6
  2  3  1  0
  3  8  1  0
  3  4  1  0
  4  5  1  0
  5  6  1  0
  6  7  1  0
  7  8  1  0
  2  9  1  0
  9 10  2  0
  9 11  1  0
 12 11  1  6
 12 25  1  0
 12 13  1  0
 13 14  1  0
 14 27  1  0
 14 15  1  0
 15 16  1  0
 16 17  1  0
 17 22  1  0
 17 18  2  0
 18 19  1  0
 19 20  2  0
 20 21  1  0
 21 22  2  0
 14 23  1  0
 23 24  1  0
 24 25  1  0
 25 26  1  0
 26 27  1  0
  2 28  1  0
 28 33  1  0
 28 29  2  0
 29 30  1  0
 30 31  2  0
 31 32  1  0
 32 33  2  0
M  CHG  1  14   1
M  END
>  <SMILES>  (424) 
C[C@@](C(=O)O[C@H]1C[N+]2(CCc3ccccc3)CCC1CC2)(c1ccccc1)N1CCCCC1

>  <CollectionName>  (424) 
chembl

>  <LOG PLASMA PROTEIN BINDING (RAT) (% unbound)>  (424) 
1.34222522936

>  <Internal ID>  (424) 


>  <Source>  (424) 
AstraZeneca

$$$$
CHEMBL1471
     RDKit          2D

 37 40  0  0  1  0  0  0  0  0999 V2000
    1.7409    3.0052    0.0000 C   0  0  0  0  0  0  0  0  0  0  0  0
    2.6054    2.5026    0.0000 C   0  0  0  0  0  0  0  0  0  0  0  0
    2.6025    1.5026    0.0000 O   0  0  0  0  0  0  0  0  0  0  0  0
    1.7350    1.0052    0.0000 C   0  0  0  0  0  0  0  0  0  0  0  0
    0.8675    1.5129    0.0000 O   0  0  0  0  0  0  0  0  0  0  0  0
    0.0000    1.0052    0.0000 C   0  0  0  0  0  0  0  0  0  0  0  0
    0.0000    0.0000    0.0000 C   0  0  0  0  0  0  0  0  0  0  0  0
    0.8675   -0.4975    0.0000 N   0  0  0  0  0  0  0  0  0  0  0  0
    0.8675   -1.4975    0.0000 C   0  0  0  0  0  0  0  0  0  0  0  0
    0.0015   -1.9975    0.0000 C   0  0  0  0  0  0  0  0  0  0  0  0
   -0.9130   -1.5890    0.0000 N   0  0  0  0  0  0  0  0  0  0  0  0
   -1.5846   -2.3361    0.0000 N   0  0  0  0  0  0  0  0  0  0  0  0
   -1.0804   -3.2002    0.0000 C   0  0  0  0  0  0  0  0  0  0  0  0
   -1.4856   -4.1144    0.0000 O   0  0  0  0  0  0  0  0  0  0  0  0
   -0.1020   -2.9936    0.0000 N   0  0  0  0  0  0  0  0  0  0  0  0
    1.7350    0.0000    0.0000 C   0  0  0  0  0  0  0  0  0  0  0  0
    2.6003   -0.5013    0.0000 C   0  0  0  0  0  0  0  0  0  0  0  0
    2.6003   -1.5013    0.0000 C   0  0  0  0  0  0  0  0  0  0  0  0
    3.4634   -2.0063    0.0000 C   0  0  0  0  0  0  0  0  0  0  0  0
    4.3354   -1.5062    0.0000 C   0  0  0  0  0  0  0  0  0  0  0  0
    5.1985   -2.0113    0.0000 F   0  0  0  0  0  0  0  0  0  0  0  0
    4.3443   -0.5011    0.0000 C   0  0  0  0  0  0  0  0  0  0  0  0
    3.4723   -0.0012    0.0000 C   0  0  0  0  0  0  0  0  0  0  0  0
    3.4729    3.0001    0.0000 C   0  0  0  0  0  0  0  0  0  0  0  0
    3.4730    4.0001    0.0000 C   0  0  0  0  0  0  0  0  0  0  0  0
    4.3450    4.5001    0.0000 C   0  0  0  0  0  0  0  0  0  0  0  0
    5.2170    4.0001    0.0000 C   0  0  0  0  0  0  0  0  0  0  0  0
    5.2081    2.9950    0.0000 C   0  0  0  0  0  0  0  0  0  0  0  0
    4.3361    2.4950    0.0000 C   0  0  0  0  0  0  0  0  0  0  0  0
    6.0711    2.4899    0.0000 C   0  0  0  0  0  0  0  0  0  0  0  0
    6.5762    3.3530    0.0000 F   0  0  0  0  0  0  0  0  0  0  0  0
    5.5660    1.6269    0.0000 F   0  0  0  0  0  0  0  0  0  0  0  0
    6.9342    1.9848    0.0000 F   0  0  0  0  0  0  0  0  0  0  0  0
    4.3450    5.5001    0.0000 C   0  0  0  0  0  0  0  0  0  0  0  0
    3.3450    5.5001    0.0000 F   0  0  0  0  0  0  0  0  0  0  0  0
    5.3450    5.5001    0.0000 F   0  0  0  0  0  0  0  0  0  0  0  0
    4.3450    6.5001    0.0000 F   0  0  0  0  0  0  0  0  0  0  0  0
  2  1  1  6
  2  3  1  0
  4  3  1  6
  4 16  1  0
  4  5  1  0
  5  6  1  0
  6  7  1  0
  7  8  1  0
  8  9  1  0
  9 10  1  0
 10 15  1  0
 10 11  2  0
 11 12  1  0
 12 13  1  0
 13 14  2  0
 13 15  1  0
  8 16  1  0
 16 17  1  6
 17 23  1  0
 17 18  2  0
 18 19  1  0
 19 20  2  0
 20 21  1  0
 20 22  1  0
 22 23  2  0
  2 24  1  0
 24 29  1  0
 24 25  2  0
 25 26  1  0
 26 27  2  0
 27 28  1  0
 28 29  2  0
 28 30  1  0
 30 31  1  0
 30 32  1  0
 30 33  1  0
 26 34  1  0
 34 35  1  0
 34 36  1  0
 34 37  1  0
M  END
>  <SMILES>  (425) 
C[C@@H](O[C@H]1OCCN(Cc2n[nH]c(=O)[nH]2)[C@H]1c1ccc(F)cc1)c1cc(C(F)(F)F)cc(C(F)(F)F)c1

>  <CollectionName>  (425) 
chembl

>  <LOG PLASMA PROTEIN BINDING (RAT) (% unbound)>  (425) 
-0.638272163982

>  <Internal ID>  (425) 


>  <Source>  (425) 
AstraZeneca

$$$$
CHEMBL1477
     RDKit          2D

 33 34  0  0  1  0  0  0  0  0999 V2000
   -2.5966   -1.5050    0.0000 C   0  0  0  0  0  0  0  0  0  0  0  0
   -1.7313   -1.0038    0.0000 O   0  0  0  0  0  0  0  0  0  0  0  0
   -1.7328   -0.0038    0.0000 C   0  0  0  0  0  0  0  0  0  0  0  0
   -0.8675    0.4975    0.0000 C   0  0  0  0  0  0  0  0  0  0  0  0
   -0.8675    1.5027    0.0000 C   0  0  0  0  0  0  0  0  0  0  0  0
   -0.0000    2.0104    0.0000 N   0  0  0  0  0  0  0  0  0  0  0  0
    0.8675    1.5027    0.0000 C   0  0  0  0  0  0  0  0  0  0  0  0
    1.7350    2.0001    0.0000 C   0  0  0  0  0  0  0  0  0  0  0  0
    1.7379    3.0001    0.0000 C   0  0  0  0  0  0  0  0  0  0  0  0
    2.5995    1.4976    0.0000 C   0  0  0  0  0  0  0  0  0  0  0  0
    0.8675    0.4975    0.0000 C   0  0  0  0  0  0  0  0  0  0  0  0
    1.7328   -0.0038    0.0000 C   0  0  0  0  0  0  0  0  0  0  0  0
    2.5995    0.4950    0.0000 C   0  0  0  0  0  0  0  0  0  0  0  0
    3.4648   -0.0063    0.0000 C   0  0  0  0  0  0  0  0  0  0  0  0
    3.4634   -1.0063    0.0000 O   0  0  0  0  0  0  0  0  0  0  0  0
    4.3316    0.4925    0.0000 C   0  0  0  0  0  0  0  0  0  0  0  0
    5.1969   -0.0088    0.0000 C   0  0  0  0  0  0  0  0  0  0  0  0
    5.1954   -1.0088    0.0000 O   0  0  0  0  0  0  0  0  0  0  0  0
    6.0636    0.4900    0.0000 C   0  0  0  0  0  0  0  0  0  0  0  0
    6.9289   -0.0113    0.0000 C   0  0  0  0  0  0  0  0  0  0  0  0
    6.9275   -1.0113    0.0000 O   0  0  0  0  0  0  0  0  0  0  0  0
    7.7957    0.4875    0.0000 O   0  0  0  0  0  0  0  0  0  0  0  0
    0.0000    0.0000    0.0000 C   0  0  0  0  0  0  0  0  0  0  0  0
    0.0000   -1.0000    0.0000 C   0  0  0  0  0  0  0  0  0  0  0  0
   -0.8653   -1.5013    0.0000 C   0  0  0  0  0  0  0  0  0  0  0  0
   -0.8697   -2.5013    0.0000 C   0  0  0  0  0  0  0  0  0  0  0  0
    0.0001   -3.0052    0.0000 C   0  0  0  0  0  0  0  0  0  0  0  0
   -0.0043   -4.0051    0.0000 F   0  0  0  0  0  0  0  0  0  0  0  0
    0.8743   -2.5090    0.0000 C   0  0  0  0  0  0  0  0  0  0  0  0
    0.8698   -1.5039    0.0000 C   0  0  0  0  0  0  0  0  0  0  0  0
   -1.7350    2.0001    0.0000 C   0  0  0  0  0  0  0  0  0  0  0  0
   -2.5995    1.4976    0.0000 C   0  0  0  0  0  0  0  0  0  0  0  0
   -1.7379    3.0001    0.0000 C   0  0  0  0  0  0  0  0  0  0  0  0
  1  2  1  0
  2  3  1  0
  3  4  1  0
  4 23  2  0
  4  5  1  0
  5  6  2  0
  6  7  1  0
  7  8  1  0
  8  9  1  0
  8 10  1  0
  7 11  2  0
 11 12  1  0
 12 13  2  0
 13 14  1  0
 14 15  1  6
 14 16  1  0
 16 17  1  0
 17 18  1  6
 17 19  1  0
 19 20  1  0
 20 21  2  0
 20 22  1  0
 11 23  1  0
 23 24  1  0
 24 30  1  0
 24 25  2  0
 25 26  1  0
 26 27  2  0
 27 28  1  0
 27 29  1  0
 29 30  2  0
  5 31  1  0
 31 32  1  0
 31 33  1  0
M  END
>  <SMILES>  (426) 
COCc1c(C(C)C)nc(C(C)C)c(/C=C/[C@@H](O)C[C@@H](O)CC(=O)O)c1-c1ccc(F)cc1

>  <CollectionName>  (426) 
chembl

>  <LOG PLASMA PROTEIN BINDING (RAT) (% unbound)>  (426) 
0.707570176098

>  <Internal ID>  (426) 


>  <Source>  (426) 
AstraZeneca

$$$$
CHEMBL198362
     RDKit          2D

 29 32  0  0  1  0  0  0  0  0999 V2000
    6.7458   -6.1412    0.0000 Cl  0  0  0  0  0  0  0  0  0  0  0  0
    5.9995   -6.8068    0.0000 C   0  0  0  0  0  0  0  0  0  0  0  0
    6.0987   -7.8036    0.0000 C   0  0  0  0  0  0  0  0  0  0  0  0
    5.1824   -8.2080    0.0000 C   0  0  0  0  0  0  0  0  0  0  0  0
    4.5177   -7.4609    0.0000 C   0  0  0  0  0  0  0  0  0  0  0  0
    5.0176   -6.5943    0.0000 S   0  0  0  0  0  0  0  0  0  0  0  0
    3.5228   -7.5627    0.0000 C   0  0  0  0  0  0  0  0  0  0  0  0
    3.1136   -8.4751    0.0000 O   0  0  0  0  0  0  0  0  0  0  0  0
    2.9373   -6.7520    0.0000 N   0  0  0  0  0  0  0  0  0  0  0  0
    1.9425   -6.8538    0.0000 C   0  0  0  0  0  0  0  0  0  0  0  0
    1.3570   -6.0432    0.0000 C   0  0  0  0  0  0  0  0  0  0  0  0
    1.6716   -5.0939    0.0000 C   0  0  0  0  0  0  0  0  0  0  0  0
    0.8632   -4.5026    0.0000 N   0  0  0  0  0  0  0  0  0  0  0  0
    0.0496   -5.0869    0.0000 C   0  0  0  0  0  0  0  0  0  0  0  0
   -0.9000   -4.7734    0.0000 O   0  0  0  0  0  0  0  0  0  0  0  0
    0.3565   -6.0435    0.0000 O   0  0  0  0  0  0  0  0  0  0  0  0
    0.8676   -3.5027    0.0000 C   0  0  0  0  0  0  0  0  0  0  0  0
   -0.0022   -2.9988    0.0000 C   0  0  0  0  0  0  0  0  0  0  0  0
    0.0022   -1.9988    0.0000 C   0  0  0  0  0  0  0  0  0  0  0  0
    0.8675   -1.4975    0.0000 C   0  0  0  0  0  0  0  0  0  0  0  0
    1.7373   -2.0014    0.0000 C   0  0  0  0  0  0  0  0  0  0  0  0
    1.7418   -3.0065    0.0000 C   0  0  0  0  0  0  0  0  0  0  0  0
    0.8675   -0.4975    0.0000 N   0  0  0  0  0  0  0  0  0  0  0  0
    0.0000    0.0000    0.0000 C   0  0  0  0  0  0  0  0  0  0  0  0
    0.0000    1.0052    0.0000 C   0  0  0  0  0  0  0  0  0  0  0  0
    0.8675    1.5129    0.0000 O   0  0  0  0  0  0  0  0  0  0  0  0
    1.7350    1.0052    0.0000 C   0  0  0  0  0  0  0  0  0  0  0  0
    1.7350    0.0000    0.0000 C   0  0  0  0  0  0  0  0  0  0  0  0
    2.6003   -0.5013    0.0000 O   0  0  0  0  0  0  0  0  0  0  0  0
  1  2  1  0
  2  6  1  0
  2  3  2  0
  3  4  1  0
  4  5  2  0
  5  6  1  0
  5  7  1  0
  7  8  2  0
  7  9  1  0
  9 10  1  0
 11 10  1  6
 11 16  1  0
 11 12  1  0
 12 13  1  0
 13 14  1  0
 14 15  2  0
 14 16  1  0
 13 17  1  0
 17 22  1  0
 17 18  2  0
 18 19  1  0
 19 20  2  0
 20 21  1  0
 21 22  2  0
 20 23  1  0
 23 28  1  0
 23 24  1  0
 24 25  1  0
 25 26  1  0
 26 27  1  0
 27 28  1  0
 28 29  2  0
M  END
>  <SMILES>  (427) 
O=C(NC[C@H]1CN(c2ccc(N3CCOCC3=O)cc2)C(=O)O1)c1ccc(Cl)s1

>  <CollectionName>  (427) 
chembl

>  <LOG PLASMA PROTEIN BINDING (RAT) (% unbound)>  (427) 
0.735598899698

>  <Internal ID>  (427) 


>  <Source>  (427) 
AstraZeneca

$$$$
CHEMBL205627
     RDKit          2D

 34 36  0  0  1  0  0  0  0  0999 V2000
    8.6677    2.9670    0.0000 C   0  0  0  0  0  0  0  0  0  0  0  0
    7.8046    3.4721    0.0000 O   0  0  0  0  0  0  0  0  0  0  0  0
    6.9356    2.9772    0.0000 C   0  0  0  0  0  0  0  0  0  0  0  0
    6.0726    3.4823    0.0000 C   0  0  0  0  0  0  0  0  0  0  0  0
    6.0785    4.4823    0.0000 C   0  0  0  0  0  0  0  0  0  0  0  0
    5.2036    2.9874    0.0000 O   0  0  0  0  0  0  0  0  0  0  0  0
    4.3406    3.4925    0.0000 C   0  0  0  0  0  0  0  0  0  0  0  0
    4.3495    4.4976    0.0000 C   0  0  0  0  0  0  0  0  0  0  0  0
    3.4775    4.9976    0.0000 C   0  0  0  0  0  0  0  0  0  0  0  0
    3.4775    5.9976    0.0000 O   0  0  0  0  0  0  0  0  0  0  0  0
    4.3435    6.4976    0.0000 C   0  0  0  0  0  0  0  0  0  0  0  0
    5.2096    5.9976    0.0000 C   0  0  0  0  0  0  0  0  0  0  0  0
    4.3435    7.4976    0.0000 C   0  0  0  0  0  0  0  0  0  0  0  0
    5.2096    7.9976    0.0000 C   0  0  0  0  0  0  0  0  0  0  0  0
    5.2066    9.0028    0.0000 C   0  0  0  0  0  0  0  0  0  0  0  0
    6.0726    9.5029    0.0000 C   0  0  0  0  0  0  0  0  0  0  0  0
    6.9416    9.0080    0.0000 C   0  0  0  0  0  0  0  0  0  0  0  0
    6.9445    8.0028    0.0000 C   0  0  0  0  0  0  0  0  0  0  0  0
    6.0785    7.4925    0.0000 C   0  0  0  0  0  0  0  0  0  0  0  0
    2.6055    4.4976    0.0000 C   0  0  0  0  0  0  0  0  0  0  0  0
    2.6054    3.4976    0.0000 C   0  0  0  0  0  0  0  0  0  0  0  0
    3.4686    2.9925    0.0000 C   0  0  0  0  0  0  0  0  0  0  0  0
    1.7379    3.0001    0.0000 C   0  0  0  0  0  0  0  0  0  0  0  0
    0.8734    3.5027    0.0000 O   0  0  0  0  0  0  0  0  0  0  0  0
    1.7350    2.0001    0.0000 N   0  0  0  0  0  0  0  0  0  0  0  0
    0.8675    1.5027    0.0000 C   0  0  0  0  0  0  0  0  0  0  0  0
    0.8675    0.4975    0.0000 C   0  0  0  0  0  0  0  0  0  0  0  0
    0.0000    0.0000    0.0000 C   0  0  0  0  0  0  0  0  0  0  0  0
   -0.8675    0.4975    0.0000 C   0  0  0  0  0  0  0  0  0  0  0  0
   -0.8675    1.5027    0.0000 C   0  0  0  0  0  0  0  0  0  0  0  0
    0.0000    2.0104    0.0000 N   0  0  0  0  0  0  0  0  0  0  0  0
   -1.7328   -0.0038    0.0000 C   0  0  0  0  0  0  0  0  0  0  0  0
   -2.5995    0.4950    0.0000 O   0  0  0  0  0  0  0  0  0  0  0  0
   -1.7313   -1.0038    0.0000 O   0  0  0  0  0  0  0  0  0  0  0  0
  1  2  1  0
  2  3  1  0
  3  4  1  0
  4  5  1  1
  4  6  1  0
  6  7  1  0
  7 22  2  0
  7  8  1  0
  8  9  2  0
  9 10  1  0
 10 11  1  0
 11 12  1  6
 11 13  1  0
 13 14  1  0
 14 19  1  0
 14 15  2  0
 15 16  1  0
 16 17  2  0
 17 18  1  0
 18 19  2  0
  9 20  1  0
 20 21  2  0
 21 22  1  0
 21 23  1  0
 23 24  2  0
 23 25  1  0
 25 26  1  0
 26 31  1  0
 26 27  2  0
 27 28  1  0
 28 29  2  0
 29 30  1  0
 30 31  2  0
 29 32  1  0
 32 33  2  0
 32 34  1  0
M  END
>  <SMILES>  (428) 
COC[C@H](C)Oc1cc(O[C@@H](C)Cc2ccccc2)cc(C(=O)Nc2ccc(C(=O)O)cn2)c1

>  <CollectionName>  (428) 
chembl

>  <LOG PLASMA PROTEIN BINDING (RAT) (% unbound)>  (428) 
-0.376750709602

>  <Internal ID>  (428) 


>  <Source>  (428) 
AstraZeneca

$$$$
CHEMBL1900528
     RDKit          2D

 26 30  0  0  1  0  0  0  0  0999 V2000
    0.4404    1.0620    0.0000 C   0  0  0  0  0  0  0  0  0  0  0  0
   -0.9053   -0.0567    0.0000 N   0  0  0  0  0  0  0  0  0  0  0  0
    0.3659   -1.2594    0.0000 C   0  0  0  0  0  0  0  0  0  0  0  0
   -1.5056   -0.8660    0.0000 C   0  0  0  0  0  0  0  0  0  0  0  0
   -0.5000   -0.8660    0.0000 C   0  0  0  0  0  0  0  0  0  0  0  0
    0.0000    0.0000    0.0000 C   0  0  0  0  0  0  0  0  0  0  0  0
   -0.5000    0.8716    0.0000 C   0  0  0  0  0  0  0  0  0  0  0  0
   -1.5056    0.8716    0.0000 C   0  0  0  0  0  0  0  0  0  0  0  0
   -2.4453    0.5045    0.0000 C   0  0  0  0  0  0  0  0  0  0  0  0
   -3.3166    0.0133    0.0000 O   0  0  0  0  0  0  0  0  0  0  0  0
   -2.4554   -0.4956    0.0000 C   0  0  0  0  0  0  0  0  0  0  0  0
    1.7500   -0.0024    0.0000 O   0  0  0  0  0  0  0  0  0  0  0  0
    2.2512    0.8629    0.0000 C   0  0  0  0  0  0  0  0  0  0  0  0
    1.7524    1.7296    0.0000 O   0  0  0  0  0  0  0  0  0  0  0  0
    3.2512    0.8615    0.0000 C   0  0  0  0  0  0  0  0  0  0  0  0
    4.2512    0.8601    0.0000 O   0  0  0  0  0  0  0  0  0  0  0  0
    3.2498   -0.1385    0.0000 C   0  0  0  0  0  0  0  0  0  0  0  0
    4.0588   -0.7292    0.0000 C   0  0  0  0  0  0  0  0  0  0  0  0
    3.7493   -1.6817    0.0000 C   0  0  0  0  0  0  0  0  0  0  0  0
    2.7493   -1.6790    0.0000 C   0  0  0  0  0  0  0  0  0  0  0  0
    2.4368   -0.7287    0.0000 S   0  0  0  0  0  0  0  0  0  0  0  0
    3.2526    1.8615    0.0000 C   0  0  0  0  0  0  0  0  0  0  0  0
    2.4436    2.4522    0.0000 C   0  0  0  0  0  0  0  0  0  0  0  0
    2.7531    3.4047    0.0000 C   0  0  0  0  0  0  0  0  0  0  0  0
    3.7531    3.4020    0.0000 C   0  0  0  0  0  0  0  0  0  0  0  0
    4.0656    2.4517    0.0000 S   0  0  0  0  0  0  0  0  0  0  0  0
  1  2  1  0
  8  2  1  0
  2  3  1  0
  4  2  1  0
 11  4  1  0
  4  5  1  6
  5  6  1  0
  6  7  1  0
  8  7  1  6
  8  9  1  0
  9 11  1  0
  9 10  1  1
 11 10  1  1
  6 12  1  6
 12 13  1  0
 13 14  2  0
 13 15  1  0
 15 16  1  0
 15 17  1  0
 17 21  1  0
 17 18  2  0
 18 19  1  0
 19 20  2  0
 20 21  1  0
 15 22  1  0
 22 26  1  0
 22 23  2  0
 23 24  1  0
 24 25  2  0
 25 26  1  0
M  CHG  1   2   1
M  END
>  <SMILES>  (429) 
C[N+]1(C)[C@@H]2C[C@@H](OC(=O)C(O)(c3cccs3)c3cccs3)C[C@H]1[C@@H]1O[C@@H]12

>  <CollectionName>  (429) 
chembl

>  <LOG PLASMA PROTEIN BINDING (RAT) (% unbound)>  (429) 
1.71850168887

>  <Internal ID>  (429) 


>  <Source>  (429) 
AstraZeneca

$$$$
CHEMBL669
     RDKit          2D

 21 23  0  0  0  0  0  0  0  0999 V2000
    5.4536   -3.5040    0.0000 C   0  0  0  0  0  0  0  0  0  0  0  0
    4.5898   -4.0078    0.0000 N   0  0  0  0  0  0  0  0  0  0  0  0
    4.5942   -5.0078    0.0000 C   0  0  0  0  0  0  0  0  0  0  0  0
    3.7216   -3.5116    0.0000 C   0  0  0  0  0  0  0  0  0  0  0  0
    3.7172   -2.5116    0.0000 C   0  0  0  0  0  0  0  0  0  0  0  0
    2.8490   -2.0154    0.0000 C   0  0  0  0  0  0  0  0  0  0  0  0
    2.8446   -1.0154    0.0000 C   0  0  0  0  0  0  0  0  0  0  0  0
    1.9312   -0.5840    0.0000 C   0  0  0  0  0  0  0  0  0  0  0  0
    1.2003   -1.2778    0.0000 C   0  0  0  0  0  0  0  0  0  0  0  0
    0.2313   -0.9837    0.0000 C   0  0  0  0  0  0  0  0  0  0  0  0
    0.0000    0.0000    0.0000 C   0  0  0  0  0  0  0  0  0  0  0  0
    0.7377    0.6898    0.0000 C   0  0  0  0  0  0  0  0  0  0  0  0
    1.6999    0.3997    0.0000 C   0  0  0  0  0  0  0  0  0  0  0  0
    2.3292    1.1930    0.0000 C   0  0  0  0  0  0  0  0  0  0  0  0
    3.3333    1.1944    0.0000 C   0  0  0  0  0  0  0  0  0  0  0  0
    3.9620    0.4062    0.0000 C   0  0  0  0  0  0  0  0  0  0  0  0
    4.9146    0.7195    0.0000 C   0  0  0  0  0  0  0  0  0  0  0  0
    5.6612    0.0428    0.0000 C   0  0  0  0  0  0  0  0  0  0  0  0
    5.4510   -0.9405    0.0000 C   0  0  0  0  0  0  0  0  0  0  0  0
    4.4941   -1.2472    0.0000 C   0  0  0  0  0  0  0  0  0  0  0  0
    3.7517   -0.5772    0.0000 C   0  0  0  0  0  0  0  0  0  0  0  0
  1  2  1  0
  2  3  1  0
  2  4  1  0
  4  5  1  0
  5  6  1  0
  6  7  2  0
  7 21  1  0
  7  8  1  0
  8 13  2  0
  8  9  1  0
  9 10  2  0
 10 11  1  0
 11 12  2  0
 12 13  1  0
 13 14  1  0
 14 15  2  0
 15 16  1  0
 16 21  2  0
 16 17  1  0
 17 18  2  0
 18 19  1  0
 19 20  2  0
 20 21  1  0
M  END
>  <SMILES>  (430) 
CN(C)CCC=C1c2ccccc2C=Cc2ccccc21

>  <CollectionName>  (430) 
chembl

>  <LOG PLASMA PROTEIN BINDING (RAT) (% unbound)>  (430) 
1.06632592536

>  <Internal ID>  (430) 


>  <Source>  (430) 
AstraZeneca

$$$$
CHEMBL178737
     RDKit          2D

 37 43  0  0  0  0  0  0  0  0999 V2000
    8.4861   -1.7832    0.0000 O   0  0  0  0  0  0  0  0  0  0  0  0
    8.5905   -0.7887    0.0000 C   0  0  0  0  0  0  0  0  0  0  0  0
    9.5040   -0.3819    0.0000 N   0  0  0  0  0  0  0  0  0  0  0  0
   10.3114   -0.9719    0.0000 C   0  0  0  0  0  0  0  0  0  0  0  0
   11.2297   -0.5630    0.0000 C   0  0  0  0  0  0  0  0  0  0  0  0
   11.3405    0.4360    0.0000 O   0  0  0  0  0  0  0  0  0  0  0  0
   10.5238    1.0220    0.0000 C   0  0  0  0  0  0  0  0  0  0  0  0
    9.6056    0.6130    0.0000 C   0  0  0  0  0  0  0  0  0  0  0  0
    7.7814   -0.2010    0.0000 N   0  0  0  0  0  0  0  0  0  0  0  0
    6.9009   -0.6749    0.0000 C   0  0  0  0  0  0  0  0  0  0  0  0
    5.9813   -0.2820    0.0000 C   0  0  0  0  0  0  0  0  0  0  0  0
    5.7152    0.6819    0.0000 N   0  0  0  0  0  0  0  0  0  0  0  0
    4.7641    0.9909    0.0000 C   0  0  0  0  0  0  0  0  0  0  0  0
    4.7640    1.9909    0.0000 C   0  0  0  0  0  0  0  0  0  0  0  0
    3.9549    2.5786    0.0000 C   0  0  0  0  0  0  0  0  0  0  0  0
    3.0029    2.2678    0.0000 C   0  0  0  0  0  0  0  0  0  0  0  0
    2.4162    3.0777    0.0000 C   0  0  0  0  0  0  0  0  0  0  0  0
    1.4162    3.0760    0.0000 O   0  0  0  0  0  0  0  0  0  0  0  0
    3.0003    3.8899    0.0000 N   0  0  0  0  0  0  0  0  0  0  0  0
    3.9560    3.5802    0.0000 C   0  0  0  0  0  0  0  0  0  0  0  0
    4.7651    4.1679    0.0000 O   0  0  0  0  0  0  0  0  0  0  0  0
    2.6938    1.3168    0.0000 C   0  0  0  0  0  0  0  0  0  0  0  0
    3.2858    0.5022    0.0000 C   0  0  0  0  0  0  0  0  0  0  0  0
    2.6938   -0.3126    0.0000 N   0  0  0  0  0  0  0  0  0  0  0  0
    1.7360   -0.0013    0.0000 C   0  0  0  0  0  0  0  0  0  0  0  0
    0.8680   -0.4979    0.0000 C   0  0  0  0  0  0  0  0  0  0  0  0
    0.0000    0.0000    0.0000 C   0  0  0  0  0  0  0  0  0  0  0  0
    0.0000    1.0058    0.0000 C   0  0  0  0  0  0  0  0  0  0  0  0
    0.8680    1.5137    0.0000 C   0  0  0  0  0  0  0  0  0  0  0  0
    1.7360    1.0058    0.0000 N   0  0  0  0  0  0  0  0  0  0  0  0
    5.7645    2.3337    0.0000 C   0  0  0  0  0  0  0  0  0  0  0  0
    6.2250    3.2213    0.0000 C   0  0  0  0  0  0  0  0  0  0  0  0
    7.2240    3.2663    0.0000 C   0  0  0  0  0  0  0  0  0  0  0  0
    7.7624    2.4236    0.0000 C   0  0  0  0  0  0  0  0  0  0  0  0
    7.3019    1.5360    0.0000 C   0  0  0  0  0  0  0  0  0  0  0  0
    7.9599    0.7830    0.0000 C   0  0  0  0  0  0  0  0  0  0  0  0
    6.3029    1.4910    0.0000 C   0  0  0  0  0  0  0  0  0  0  0  0
  1  2  2  0
  2  3  1  0
  3  8  1  0
  3  4  1  0
  4  5  1  0
  5  6  1  0
  6  7  1  0
  7  8  1  0
  2  9  1  0
  9 36  1  0
  9 10  1  0
 10 11  1  0
 11 12  1  0
 12 37  1  0
 12 13  1  0
 13 14  2  0
 14 15  1  0
 15 20  1  0
 15 16  2  0
 16 17  1  0
 17 18  2  0
 17 19  1  0
 19 20  1  0
 20 21  2  0
 16 22  1  0
 22 30  1  0
 22 23  2  0
 23 24  1  0
 24 25  2  0
 25 30  1  0
 25 26  1  0
 26 27  2  0
 27 28  1  0
 28 29  2  0
 29 30  1  0
 14 31  1  0
 31 37  2  0
 31 32  1  0
 32 33  2  0
 33 34  1  0
 34 35  2  0
 35 36  1  0
 35 37  1  0
M  END
>  <SMILES>  (431) 
O=C1NC(=O)C(c2cnc3ccccn23)=C1c1cn2c3c(cccc13)CN(C(=O)N1CCOCC1)CC2

>  <CollectionName>  (431) 
chembl

>  <LOG PLASMA PROTEIN BINDING (RAT) (% unbound)>  (431) 
1.05728564442

>  <Internal ID>  (431) 


>  <Source>  (431) 
AstraZeneca

$$$$
CHEMBL22183
     RDKit          2D

 19 20  0  0  0  0  0  0  0  0999 V2000
    3.4685    0.9975    0.0000 C   0  0  0  0  0  0  0  0  0  0  0  0
    3.4670   -0.0025    0.0000 N   0  0  0  0  0  0  0  0  0  0  0  0
    4.3323   -0.5038    0.0000 C   0  0  0  0  0  0  0  0  0  0  0  0
    2.6003   -0.5013    0.0000 C   0  0  0  0  0  0  0  0  0  0  0  0
    1.7350    0.0000    0.0000 C   0  0  0  0  0  0  0  0  0  0  0  0
    0.8675   -0.4975    0.0000 C   0  0  0  0  0  0  0  0  0  0  0  0
    0.0000    0.0000    0.0000 C   0  0  0  0  0  0  0  0  0  0  0  0
    0.0000    1.0052    0.0000 C   0  0  0  0  0  0  0  0  0  0  0  0
    0.8675    1.5129    0.0000 C   0  0  0  0  0  0  0  0  0  0  0  0
    1.7350    1.0052    0.0000 C   0  0  0  0  0  0  0  0  0  0  0  0
    2.6025    1.5026    0.0000 S   0  0  0  0  0  0  0  0  0  0  0  0
    2.6054    2.5026    0.0000 C   0  0  0  0  0  0  0  0  0  0  0  0
    1.7416    3.0065    0.0000 C   0  0  0  0  0  0  0  0  0  0  0  0
    1.7402    4.0065    0.0000 C   0  0  0  0  0  0  0  0  0  0  0  0
    2.6115    4.5078    0.0000 C   0  0  0  0  0  0  0  0  0  0  0  0
    2.6100    5.5078    0.0000 C   0  0  0  0  0  0  0  0  0  0  0  0
    3.4842    4.0090    0.0000 C   0  0  0  0  0  0  0  0  0  0  0  0
    3.4767    3.0039    0.0000 C   0  0  0  0  0  0  0  0  0  0  0  0
    4.3405    2.5001    0.0000 N   0  0  0  0  0  0  0  0  0  0  0  0
  1  2  1  0
  2  3  1  0
  2  4  1  0
  4  5  1  0
  5 10  2  0
  5  6  1  0
  6  7  2  0
  7  8  1  0
  8  9  2  0
  9 10  1  0
 10 11  1  0
 11 12  1  0
 12 18  1  0
 12 13  2  0
 13 14  1  0
 14 15  2  0
 15 16  1  0
 15 17  1  0
 17 18  2  0
 18 19  1  0
M  END
>  <SMILES>  (432) 
Cc1ccc(Sc2ccccc2CN(C)C)c(N)c1

>  <CollectionName>  (432) 
chembl

>  <LOG PLASMA PROTEIN BINDING (RAT) (% unbound)>  (432) 
0.967547976219

>  <Internal ID>  (432) 


>  <Source>  (432) 
AstraZeneca

$$$$
CHEMBL510780
     RDKit          2D

 20 23  0  0  1  0  0  0  0  0999 V2000
    4.7888    2.1072    0.0000 C   0  0  0  0  0  0  0  0  0  0  0  0
    4.2848    1.2369    0.0000 C   0  0  0  0  0  0  0  0  0  0  0  0
    4.7857    0.3625    0.0000 C   0  0  0  0  0  0  0  0  0  0  0  0
    4.2858   -0.5035    0.0000 N   0  0  0  0  0  0  0  0  0  0  0  0
    3.2858   -0.5036    0.0000 C   0  0  0  0  0  0  0  0  0  0  0  0
    2.6938   -1.3184    0.0000 N   0  0  0  0  0  0  0  0  0  0  0  0
    1.7360   -1.0071    0.0000 C   0  0  0  0  0  0  0  0  0  0  0  0
    0.8680   -1.5037    0.0000 C   0  0  0  0  0  0  0  0  0  0  0  0
    0.0000   -1.0058    0.0000 C   0  0  0  0  0  0  0  0  0  0  0  0
    0.0000    0.0000    0.0000 C   0  0  0  0  0  0  0  0  0  0  0  0
    0.8680    0.5079    0.0000 C   0  0  0  0  0  0  0  0  0  0  0  0
    1.7360   -0.0000    0.0000 C   0  0  0  0  0  0  0  0  0  0  0  0
    2.6938    0.3110    0.0000 N   0  0  0  0  0  0  0  0  0  0  0  0
    5.7886    0.3660    0.0000 C   0  0  0  0  0  0  0  0  0  0  0  0
    6.2840   -0.5090    0.0000 C   0  0  0  0  0  0  0  0  0  0  0  0
    7.2895   -0.5058    0.0000 C   0  0  0  0  0  0  0  0  0  0  0  0
    7.7947    0.3638    0.0000 C   0  0  0  0  0  0  0  0  0  0  0  0
    7.2942    1.2302    0.0000 C   0  0  0  0  0  0  0  0  0  0  0  0
    6.2926    1.2363    0.0000 C   0  0  0  0  0  0  0  0  0  0  0  0
    5.7937    2.1030    0.0000 C   0  0  0  0  0  0  0  0  0  0  0  0
  1 20  1  0
  1  2  1  0
  2  3  1  0
  3  4  1  6
  4  5  1  0
  5 13  1  0
  5  6  2  0
  6  7  1  0
  7 12  2  0
  7  8  1  0
  8  9  2  0
  9 10  1  0
 10 11  2  0
 11 12  1  0
 12 13  1  0
  3 14  1  0
 14 19  2  0
 14 15  1  0
 15 16  2  0
 16 17  1  0
 17 18  2  0
 18 19  1  0
 19 20  1  0
M  END
>  <SMILES>  (433) 
c1ccc2c(c1)CCC[C@H]2Nc1nc2ccccc2[nH]1

>  <CollectionName>  (433) 
chembl

>  <LOG PLASMA PROTEIN BINDING (RAT) (% unbound)>  (433) 
0.64048143697

>  <Internal ID>  (433) 


>  <Source>  (433) 
AstraZeneca

$$$$
CHEMBL521509
     RDKit          2D

 31 35  0  0  0  0  0  0  0  0999 V2000
    4.3381   -1.5121    0.0000 O   0  0  0  0  0  0  0  0  0  0  0  0
    4.3437   -0.5122    0.0000 C   0  0  0  0  0  0  0  0  0  0  0  0
    5.2125   -0.0170    0.0000 N   0  0  0  0  0  0  0  0  0  0  0  0
    6.0757   -0.5219    0.0000 C   0  0  0  0  0  0  0  0  0  0  0  0
    6.5727   -1.3918    0.0000 C   0  0  0  0  0  0  0  0  0  0  0  0
    7.0776   -0.5286    0.0000 C   0  0  0  0  0  0  0  0  0  0  0  0
    3.4805   -0.0073    0.0000 C   0  0  0  0  0  0  0  0  0  0  0  0
    3.4848    1.0014    0.0000 C   0  0  0  0  0  0  0  0  0  0  0  0
    2.6125    1.5125    0.0000 N   0  0  0  0  0  0  0  0  0  0  0  0
    2.6154    2.5125    0.0000 C   0  0  0  0  0  0  0  0  0  0  0  0
    1.7449    3.0151    0.0000 C   0  0  0  0  0  0  0  0  0  0  0  0
    1.7477    4.0151    0.0000 C   0  0  0  0  0  0  0  0  0  0  0  0
    2.6123    4.5177    0.0000 C   0  0  0  0  0  0  0  0  0  0  0  0
    3.4829    4.0151    0.0000 C   0  0  0  0  0  0  0  0  0  0  0  0
    3.4888    3.0100    0.0000 C   0  0  0  0  0  0  0  0  0  0  0  0
    4.3474    4.5177    0.0000 C   0  0  0  0  0  0  0  0  0  0  0  0
    5.2119    5.0203    0.0000 C   0  0  0  0  0  0  0  0  0  0  0  0
    6.0764    5.5228    0.0000 C   0  0  0  0  0  0  0  0  0  0  0  0
    6.0749    6.5229    0.0000 C   0  0  0  0  0  0  0  0  0  0  0  0
    6.9373    7.0292    0.0000 C   0  0  0  0  0  0  0  0  0  0  0  0
    7.8100    6.5305    0.0000 C   0  0  0  0  0  0  0  0  0  0  0  0
    7.8204    5.5254    0.0000 N   0  0  0  0  0  0  0  0  0  0  0  0
    6.9492    5.0241    0.0000 C   0  0  0  0  0  0  0  0  0  0  0  0
    1.7414    1.0089    0.0000 C   0  0  0  0  0  0  0  0  0  0  0  0
    0.8707    1.5185    0.0000 N   0  0  0  0  0  0  0  0  0  0  0  0
    0.0000    1.0089    0.0000 C   0  0  0  0  0  0  0  0  0  0  0  0
    0.0000    0.0000    0.0000 C   0  0  0  0  0  0  0  0  0  0  0  0
    0.8707   -0.4993    0.0000 C   0  0  0  0  0  0  0  0  0  0  0  0
    1.7371   -0.0000    0.0000 C   0  0  0  0  0  0  0  0  0  0  0  0
    2.6039   -0.5053    0.0000 C   0  0  0  0  0  0  0  0  0  0  0  0
    2.5983   -1.5053    0.0000 O   0  0  0  0  0  0  0  0  0  0  0  0
  1  2  2  0
  2  3  1  0
  3  4  1  0
  4  6  1  0
  4  5  1  0
  5  6  1  0
  2  7  1  0
  7 30  1  0
  7  8  2  0
  8  9  1  0
  9 10  1  0
 10 15  1  0
 10 11  2  0
 11 12  1  0
 12 13  2  0
 13 14  1  0
 14 15  2  0
 14 16  1  0
 16 17  3  0
 17 18  1  0
 18 23  1  0
 18 19  2  0
 19 20  1  0
 20 21  2  0
 21 22  1  0
 22 23  2  0
  9 24  1  0
 24 29  2  0
 24 25  1  0
 25 26  2  0
 26 27  1  0
 27 28  2  0
 28 29  1  0
 29 30  1  0
 30 31  2  0
M  END
>  <SMILES>  (434) 
O=C(NC1CC1)c1cn(-c2cccc(C#Cc3cccnc3)c2)c2ncccc2c1=O

>  <CollectionName>  (434) 
chembl

>  <LOG PLASMA PROTEIN BINDING (RAT) (% unbound)>  (434) 
-0.0861861476163

>  <Internal ID>  (434) 


>  <Source>  (434) 
AstraZeneca

$$$$
CHEMBL522460
     RDKit          2D

 30 34  0  0  0  0  0  0  0  0999 V2000
    5.4794    9.9008    0.0000 C   0  0  0  0  0  0  0  0  0  0  0  0
    6.1496    9.1587    0.0000 C   0  0  0  0  0  0  0  0  0  0  0  0
    7.1277    9.3666    0.0000 C   0  0  0  0  0  0  0  0  0  0  0  0
    7.8012    8.6273    0.0000 C   0  0  0  0  0  0  0  0  0  0  0  0
    7.4934    7.6704    0.0000 C   0  0  0  0  0  0  0  0  0  0  0  0
    6.5121    7.4528    0.0000 C   0  0  0  0  0  0  0  0  0  0  0  0
    5.8417    8.2018    0.0000 C   0  0  0  0  0  0  0  0  0  0  0  0
    4.8636    7.9939    0.0000 C   0  0  0  0  0  0  0  0  0  0  0  0
    4.5545    7.0429    0.0000 N   0  0  0  0  0  0  0  0  0  0  0  0
    3.5726    6.8281    0.0000 C   0  0  0  0  0  0  0  0  0  0  0  0
    3.2619    5.8721    0.0000 C   0  0  0  0  0  0  0  0  0  0  0  0
    3.9332    5.1309    0.0000 C   0  0  0  0  0  0  0  0  0  0  0  0
    4.9120    5.3359    0.0000 C   0  0  0  0  0  0  0  0  0  0  0  0
    5.2227    6.2919    0.0000 C   0  0  0  0  0  0  0  0  0  0  0  0
    3.6242    4.1798    0.0000 N   0  0  0  0  0  0  0  0  0  0  0  0
    2.6422    3.9651    0.0000 C   0  0  0  0  0  0  0  0  0  0  0  0
    2.3316    3.0091    0.0000 C   0  0  0  0  0  0  0  0  0  0  0  0
    3.0029    2.2678    0.0000 C   0  0  0  0  0  0  0  0  0  0  0  0
    3.9816    2.4729    0.0000 C   0  0  0  0  0  0  0  0  0  0  0  0
    4.2923    3.4289    0.0000 C   0  0  0  0  0  0  0  0  0  0  0  0
    2.6938    1.3168    0.0000 N   0  0  0  0  0  0  0  0  0  0  0  0
    3.2858    0.5022    0.0000 C   0  0  0  0  0  0  0  0  0  0  0  0
    4.2858    0.5023    0.0000 O   0  0  0  0  0  0  0  0  0  0  0  0
    2.6938   -0.3126    0.0000 N   0  0  0  0  0  0  0  0  0  0  0  0
    1.7360   -0.0013    0.0000 C   0  0  0  0  0  0  0  0  0  0  0  0
    0.8680   -0.4979    0.0000 C   0  0  0  0  0  0  0  0  0  0  0  0
    0.0000    0.0000    0.0000 C   0  0  0  0  0  0  0  0  0  0  0  0
    0.0000    1.0058    0.0000 C   0  0  0  0  0  0  0  0  0  0  0  0
    0.8680    1.5137    0.0000 C   0  0  0  0  0  0  0  0  0  0  0  0
    1.7360    1.0058    0.0000 C   0  0  0  0  0  0  0  0  0  0  0  0
  1  2  1  0
  2  7  2  0
  2  3  1  0
  3  4  2  0
  4  5  1  0
  5  6  2  0
  6  7  1  0
  7  8  1  0
  8  9  1  0
  9 14  1  0
  9 10  1  0
 10 11  1  0
 11 12  1  0
 12 13  1  0
 13 14  1  0
 12 15  1  0
 15 20  1  0
 15 16  1  0
 16 17  1  0
 17 18  1  0
 18 19  1  0
 19 20  1  0
 18 21  1  0
 21 30  1  0
 21 22  1  0
 22 23  2  0
 22 24  1  0
 24 25  1  0
 25 30  2  0
 25 26  1  0
 26 27  2  0
 27 28  1  0
 28 29  2  0
 29 30  1  0
M  END
>  <SMILES>  (435) 
Cc1ccccc1CN1CCC(N2CCC(n3c(=O)[nH]c4ccccc43)CC2)CC1

>  <CollectionName>  (435) 
chembl

>  <LOG PLASMA PROTEIN BINDING (RAT) (% unbound)>  (435) 
1.47567118832

>  <Internal ID>  (435) 


>  <Source>  (435) 
AstraZeneca

$$$$
CHEMBL1369407
     RDKit          2D

 33 37  0  0  0  0  0  0  0  0999 V2000
    5.2167    3.0084    0.0000 C   0  0  0  0  0  0  0  0  0  0  0  0
    6.0824    2.5078    0.0000 C   0  0  0  0  0  0  0  0  0  0  0  0
    6.9487    3.0073    0.0000 C   0  0  0  0  0  0  0  0  0  0  0  0
    6.0817    1.5078    0.0000 N   0  0  0  0  0  0  0  0  0  0  0  0
    5.2154    1.0084    0.0000 C   0  0  0  0  0  0  0  0  0  0  0  0
    4.3415    1.5149    0.0000 C   0  0  0  0  0  0  0  0  0  0  0  0
    3.4735    1.0078    0.0000 C   0  0  0  0  0  0  0  0  0  0  0  0
    2.6012    1.5123    0.0000 N   0  0  0  0  0  0  0  0  0  0  0  0
    2.5985    2.5123    0.0000 C   0  0  0  0  0  0  0  0  0  0  0  0
    3.4625    3.0159    0.0000 C   0  0  0  0  0  0  0  0  0  0  0  0
    3.4642    4.0159    0.0000 C   0  0  0  0  0  0  0  0  0  0  0  0
    2.5931    4.5174    0.0000 C   0  0  0  0  0  0  0  0  0  0  0  0
    2.5948    5.5174    0.0000 Cl  0  0  0  0  0  0  0  0  0  0  0  0
    1.7202    4.0190    0.0000 C   0  0  0  0  0  0  0  0  0  0  0  0
    1.7274    3.0138    0.0000 C   0  0  0  0  0  0  0  0  0  0  0  0
    1.7358    1.0056    0.0000 C   0  0  0  0  0  0  0  0  0  0  0  0
    0.8679    1.5134    0.0000 C   0  0  0  0  0  0  0  0  0  0  0  0
    0.0000    1.0056    0.0000 C   0  0  0  0  0  0  0  0  0  0  0  0
    0.0000    0.0000    0.0000 C   0  0  0  0  0  0  0  0  0  0  0  0
    0.8679   -0.4978    0.0000 C   0  0  0  0  0  0  0  0  0  0  0  0
    1.7371    0.0000    0.0000 C   0  0  0  0  0  0  0  0  0  0  0  0
    2.6038   -0.4989    0.0000 N   0  0  0  0  0  0  0  0  0  0  0  0
    3.4738   -0.0003    0.0000 C   0  0  0  0  0  0  0  0  0  0  0  0
    4.3422   -0.5013    0.0000 C   0  0  0  0  0  0  0  0  0  0  0  0
    5.2158    0.0003    0.0000 C   0  0  0  0  0  0  0  0  0  0  0  0
    6.0813   -0.5006    0.0000 N   0  0  0  0  0  0  0  0  0  0  0  0
    6.0803   -1.5006    0.0000 C   0  0  0  0  0  0  0  0  0  0  0  0
    5.2145   -2.0010    0.0000 C   0  0  0  0  0  0  0  0  0  0  0  0
    5.2092   -3.0010    0.0000 C   0  0  0  0  0  0  0  0  0  0  0  0
    6.0785   -3.5057    0.0000 C   0  0  0  0  0  0  0  0  0  0  0  0
    6.0731   -4.5057    0.0000 Cl  0  0  0  0  0  0  0  0  0  0  0  0
    6.9531   -3.0104    0.0000 C   0  0  0  0  0  0  0  0  0  0  0  0
    6.9496   -2.0053    0.0000 C   0  0  0  0  0  0  0  0  0  0  0  0
  1  2  1  0
  2  3  1  0
  2  4  1  0
  4  5  2  3
  5 25  1  0
  5  6  1  0
  6  7  2  0
  7 23  1  0
  7  8  1  0
  8  9  1  0
  9 15  1  0
  9 10  2  0
 10 11  1  0
 11 12  2  0
 12 13  1  0
 12 14  1  0
 14 15  2  0
  8 16  1  0
 16 21  2  0
 16 17  1  0
 17 18  2  0
 18 19  1  0
 19 20  2  0
 20 21  1  0
 21 22  1  0
 22 23  2  0
 23 24  1  0
 24 25  2  0
 25 26  1  0
 26 27  1  0
 27 33  1  0
 27 28  2  0
 28 29  1  0
 29 30  2  0
 30 31  1  0
 30 32  1  0
 32 33  2  0
M  END
>  <SMILES>  (436) 
CC(C)N=c1cc2n(-c3ccc(Cl)cc3)c3ccccc3nc-2cc1Nc1ccc(Cl)cc1

>  <CollectionName>  (436) 
chembl

>  <LOG PLASMA PROTEIN BINDING (RAT) (% unbound)>  (436) 
-0.431798275933

>  <Internal ID>  (436) 


>  <Source>  (436) 
AstraZeneca

$$$$
CHEMBL504813
     RDKit          2D

 30 32  0  0  0  0  0  0  0  0999 V2000
    4.2857    2.2344    0.0000 C   0  0  0  0  0  0  0  0  0  0  0  0
    4.7857    1.3684    0.0000 C   0  0  0  0  0  0  0  0  0  0  0  0
    5.7857    1.3685    0.0000 C   0  0  0  0  0  0  0  0  0  0  0  0
    4.2858    0.5024    0.0000 C   0  0  0  0  0  0  0  0  0  0  0  0
    3.2858    0.5023    0.0000 C   0  0  0  0  0  0  0  0  0  0  0  0
    2.6938   -0.3125    0.0000 C   0  0  0  0  0  0  0  0  0  0  0  0
    3.0028   -1.2636    0.0000 C   0  0  0  0  0  0  0  0  0  0  0  0
    2.3336   -2.0067    0.0000 O   0  0  0  0  0  0  0  0  0  0  0  0
    3.9809   -1.4715    0.0000 C   0  0  0  0  0  0  0  0  0  0  0  0
    4.6501   -0.7284    0.0000 O   0  0  0  0  0  0  0  0  0  0  0  0
    4.2899   -2.4226    0.0000 N   0  0  0  0  0  0  0  0  0  0  0  0
    1.7360   -0.0012    0.0000 C   0  0  0  0  0  0  0  0  0  0  0  0
    0.8680   -0.4978    0.0000 C   0  0  0  0  0  0  0  0  0  0  0  0
    0.8675   -1.4978    0.0000 O   0  0  0  0  0  0  0  0  0  0  0  0
    0.0012   -1.9973    0.0000 C   0  0  0  0  0  0  0  0  0  0  0  0
    0.0007   -2.9973    0.0000 C   0  0  0  0  0  0  0  0  0  0  0  0
    0.8664   -3.4978    0.0000 O   0  0  0  0  0  0  0  0  0  0  0  0
   -0.8656   -3.4969    0.0000 O   0  0  0  0  0  0  0  0  0  0  0  0
    0.0000    0.0000    0.0000 C   0  0  0  0  0  0  0  0  0  0  0  0
    0.0000    1.0058    0.0000 C   0  0  0  0  0  0  0  0  0  0  0  0
    0.8680    1.5138    0.0000 C   0  0  0  0  0  0  0  0  0  0  0  0
    1.7360    1.0058    0.0000 C   0  0  0  0  0  0  0  0  0  0  0  0
    2.6938    1.3169    0.0000 N   0  0  0  0  0  0  0  0  0  0  0  0
    3.0028    2.2680    0.0000 C   0  0  0  0  0  0  0  0  0  0  0  0
    2.3337    3.0111    0.0000 C   0  0  0  0  0  0  0  0  0  0  0  0
    2.6471    3.9662    0.0000 C   0  0  0  0  0  0  0  0  0  0  0  0
    1.9780    4.7094    0.0000 C   0  0  0  0  0  0  0  0  0  0  0  0
    0.9986    4.5072    0.0000 C   0  0  0  0  0  0  0  0  0  0  0  0
    0.6852    3.5521    0.0000 C   0  0  0  0  0  0  0  0  0  0  0  0
    1.3511    2.7992    0.0000 C   0  0  0  0  0  0  0  0  0  0  0  0
  1  2  1  0
  2  3  1  0
  2  4  1  0
  4  5  1  0
  5 23  1  0
  5  6  2  0
  6  7  1  0
  7  8  2  0
  7  9  1  0
  9 10  2  0
  9 11  1  0
  6 12  1  0
 12 22  2  0
 12 13  1  0
 13 14  1  0
 14 15  1  0
 15 16  1  0
 16 17  2  0
 16 18  1  0
 13 19  2  0
 19 20  1  0
 20 21  2  0
 21 22  1  0
 22 23  1  0
 23 24  1  0
 24 25  1  0
 25 30  1  0
 25 26  2  0
 26 27  1  0
 27 28  2  0
 28 29  1  0
 29 30  2  0
M  END
>  <SMILES>  (437) 
CC(C)Cc1c(C(=O)C(N)=O)c2c(OCC(=O)O)cccc2n1Cc1ccccc1

>  <CollectionName>  (437) 
chembl

>  <LOG PLASMA PROTEIN BINDING (RAT) (% unbound)>  (437) 
0.271841606536

>  <Internal ID>  (437) 


>  <Source>  (437) 
AstraZeneca

$$$$
CHEMBL507674
     RDKit          2D

 44 48  0  0  1  0  0  0  0  0999 V2000
  -11.3769    2.2786    0.0000 C   0  0  0  0  0  0  0  0  0  0  0  0
  -10.6698    1.5715    0.0000 C   0  0  0  0  0  0  0  0  0  0  0  0
   -9.7039    1.8303    0.0000 N   0  0  0  0  0  0  0  0  0  0  0  0
   -9.4479    2.7970    0.0000 C   0  0  0  0  0  0  0  0  0  0  0  0
   -8.4769    3.0572    0.0000 C   0  0  0  0  0  0  0  0  0  0  0  0
   -7.7620    2.3507    0.0000 N   0  0  0  0  0  0  0  0  0  0  0  0
   -6.7961    2.6095    0.0000 C   0  0  0  0  0  0  0  0  0  0  0  0
   -6.5373    3.5754    0.0000 O   0  0  0  0  0  0  0  0  0  0  0  0
   -6.0890    1.9024    0.0000 N   0  0  0  0  0  0  0  0  0  0  0  0
   -5.1230    2.1612    0.0000 C   0  0  0  0  0  0  0  0  0  0  0  0
   -4.4159    1.4541    0.0000 C   0  0  0  0  0  0  0  0  0  0  0  0
   -4.6748    0.4882    0.0000 O   0  0  0  0  0  0  0  0  0  0  0  0
   -3.4500    1.7129    0.0000 N   0  0  0  0  0  0  0  0  0  0  0  0
   -2.7429    1.0058    0.0000 C   0  0  0  0  0  0  0  0  0  0  0  0
   -1.7374    1.0058    0.0000 C   0  0  0  0  0  0  0  0  0  0  0  0
   -0.8713    1.5112    0.0000 S   0  0  0  0  0  0  0  0  0  0  0  0
    0.0001    1.0055    0.0000 C   0  0  0  0  0  0  0  0  0  0  0  0
    0.0000    0.0000    0.0000 C   0  0  0  0  0  0  0  0  0  0  0  0
   -0.8716   -0.4998    0.0000 C   0  0  0  0  0  0  0  0  0  0  0  0
   -1.7375    0.0003    0.0000 N   0  0  0  0  0  0  0  0  0  0  0  0
   -2.7429    0.0003    0.0000 C   0  0  0  0  0  0  0  0  0  0  0  0
   -3.4500   -0.7068    0.0000 O   0  0  0  0  0  0  0  0  0  0  0  0
   -0.8731   -1.4998    0.0000 C   0  0  0  0  0  0  0  0  0  0  0  0
   -1.7399   -1.9985    0.0000 O   0  0  0  0  0  0  0  0  0  0  0  0
   -0.0079   -2.0011    0.0000 O   0  0  0  0  0  0  0  0  0  0  0  0
    0.8653   -0.5013    0.0000 C   0  0  0  0  0  0  0  0  0  0  0  0
    1.7320   -0.0026    0.0000 S   0  0  0  0  0  0  0  0  0  0  0  0
    2.5973   -0.5040    0.0000 C   0  0  0  0  0  0  0  0  0  0  0  0
    2.6973   -1.4989    0.0000 N   0  0  0  0  0  0  0  0  0  0  0  0
    3.6765   -1.7090    0.0000 N   0  0  0  0  0  0  0  0  0  0  0  0
    4.1811   -0.8438    0.0000 N   0  0  0  0  0  0  0  0  0  0  0  0
    3.5106   -0.0957    0.0000 N   0  0  0  0  0  0  0  0  0  0  0  0
    3.7189    0.8824    0.0000 C   0  0  0  0  0  0  0  0  0  0  0  0
   -4.8642    3.1271    0.0000 C   0  0  0  0  0  0  0  0  0  0  0  0
   -3.8986    3.3873    0.0000 C   0  0  0  0  0  0  0  0  0  0  0  0
   -3.6356    4.3522    0.0000 C   0  0  0  0  0  0  0  0  0  0  0  0
   -4.3454    5.0640    0.0000 C   0  0  0  0  0  0  0  0  0  0  0  0
   -4.0823    6.0288    0.0000 O   0  0  0  0  0  0  0  0  0  0  0  0
   -5.3181    4.8110    0.0000 C   0  0  0  0  0  0  0  0  0  0  0  0
   -5.5740    3.8389    0.0000 C   0  0  0  0  0  0  0  0  0  0  0  0
   -8.0279    1.3813    0.0000 C   0  0  0  0  0  0  0  0  0  0  0  0
   -7.3229    0.6721    0.0000 O   0  0  0  0  0  0  0  0  0  0  0  0
   -8.9988    1.1212    0.0000 C   0  0  0  0  0  0  0  0  0  0  0  0
   -9.2590    0.1556    0.0000 O   0  0  0  0  0  0  0  0  0  0  0  0
  1  2  1  0
  2  3  1  0
  3 43  1  0
  3  4  1  0
  4  5  1  0
  5  6  1  0
  6  7  1  0
  7  8  2  0
  7  9  1  0
 10  9  1  6
 10 11  1  0
 11 12  2  0
 11 13  1  0
 14 13  1  1
 14 21  1  0
 14 15  1  0
 15 20  1  0
 15 16  1  1
 16 17  1  0
 17 18  1  0
 18 19  2  0
 19 20  1  0
 20 21  1  0
 21 22  2  0
 19 23  1  0
 23 24  2  0
 23 25  1  0
 18 26  1  0
 26 27  1  0
 27 28  1  0
 28 32  1  0
 28 29  2  0
 29 30  1  0
 30 31  2  0
 31 32  1  0
 32 33  1  0
 10 34  1  0
 34 40  1  0
 34 35  2  0
 35 36  1  0
 36 37  2  0
 37 38  1  0
 37 39  1  0
 39 40  2  0
  6 41  1  0
 41 42  2  0
 41 43  1  0
 43 44  2  0
M  END
>  <SMILES>  (438) 
CCN1CCN(C(=O)N[C@@H](C(=O)N[C@@H]2C(=O)N3C(C(=O)O)=C(CSc4nnnn4C)CS[C@H]23)c2ccc(O)cc2)C(=O)C1=O

>  <CollectionName>  (438) 
chembl

>  <LOG PLASMA PROTEIN BINDING (RAT) (% unbound)>  (438) 
1.48967729166

>  <Internal ID>  (438) 


>  <Source>  (438) 
AstraZeneca

$$$$
CHEMBL1364767
     RDKit          2D

 19 21  0  0  0  0  0  0  0  0999 V2000
   -1.2577    1.2605    0.0000 C   0  0  0  0  0  0  0  0  0  0  0  0
   -0.3065    0.9519    0.0000 C   0  0  0  0  0  0  0  0  0  0  0  0
    0.5008    1.5428    0.0000 N   0  0  0  0  0  0  0  0  0  0  0  0
    1.3133    0.9519    0.0000 N   0  0  0  0  0  0  0  0  0  0  0  0
    2.2648    1.2596    0.0000 C   0  0  0  0  0  0  0  0  0  0  0  0
    2.4723    2.2431    0.0000 C   0  0  0  0  0  0  0  0  0  0  0  0
    3.4238    2.5508    0.0000 C   0  0  0  0  0  0  0  0  0  0  0  0
    4.1699    1.8850    0.0000 C   0  0  0  0  0  0  0  0  0  0  0  0
    3.9624    0.9014    0.0000 C   0  0  0  0  0  0  0  0  0  0  0  0
    3.0088    0.5837    0.0000 C   0  0  0  0  0  0  0  0  0  0  0  0
    1.0015   -0.0000    0.0000 C   0  0  0  0  0  0  0  0  0  0  0  0
    1.5883   -0.8097    0.0000 N   0  0  0  0  0  0  0  0  0  0  0  0
    0.0000    0.0000    0.0000 C   0  0  0  0  0  0  0  0  0  0  0  0
   -0.5889   -0.8082    0.0000 C   0  0  0  0  0  0  0  0  0  0  0  0
   -0.1785   -1.7259    0.0000 C   0  0  0  0  0  0  0  0  0  0  0  0
   -0.7674   -2.5342    0.0000 C   0  0  0  0  0  0  0  0  0  0  0  0
   -1.7624   -2.4341    0.0000 C   0  0  0  0  0  0  0  0  0  0  0  0
   -2.1727   -1.5165    0.0000 C   0  0  0  0  0  0  0  0  0  0  0  0
   -1.5880   -0.6989    0.0000 C   0  0  0  0  0  0  0  0  0  0  0  0
  1  2  1  0
  2 13  1  0
  2  3  2  0
  3  4  1  0
  4  5  1  0
  5 10  1  0
  5  6  1  0
  6  7  1  0
  7  8  1  0
  8  9  1  0
  9 10  1  0
  4 11  1  0
 11 12  1  0
 11 13  2  0
 13 14  1  0
 14 19  1  0
 14 15  2  0
 15 16  1  0
 16 17  2  0
 17 18  1  0
 18 19  2  0
M  END
>  <SMILES>  (439) 
Cc1nn(C2CCCCC2)c(N)c1-c1ccccc1

>  <CollectionName>  (439) 
chembl

>  <LOG PLASMA PROTEIN BINDING (RAT) (% unbound)>  (439) 
1.00389116624

>  <Internal ID>  (439) 


>  <Source>  (439) 
AstraZeneca

$$$$
CHEMBL1797410
     RDKit          2D

 31 33  0  0  0  0  0  0  0  0999 V2000
   -4.5828   -1.6238    0.0000 C   0  0  0  0  0  0  0  0  0  0  0  0
   -4.3752   -2.6021    0.0000 C   0  0  0  0  0  0  0  0  0  0  0  0
   -5.0472   -3.3433    0.0000 O   0  0  0  0  0  0  0  0  0  0  0  0
   -4.5443   -4.2130    0.0000 N   0  0  0  0  0  0  0  0  0  0  0  0
   -3.5651   -4.0023    0.0000 C   0  0  0  0  0  0  0  0  0  0  0  0
   -3.4605   -3.0063    0.0000 C   0  0  0  0  0  0  0  0  0  0  0  0
   -2.5952   -2.5050    0.0000 C   0  0  0  0  0  0  0  0  0  0  0  0
   -2.5966   -1.5050    0.0000 C   0  0  0  0  0  0  0  0  0  0  0  0
   -3.4634   -1.0063    0.0000 O   0  0  0  0  0  0  0  0  0  0  0  0
   -1.7313   -1.0038    0.0000 N   0  0  0  0  0  0  0  0  0  0  0  0
   -1.7328   -0.0038    0.0000 C   0  0  0  0  0  0  0  0  0  0  0  0
   -0.8675    0.4975    0.0000 C   0  0  0  0  0  0  0  0  0  0  0  0
    0.0000    0.0000    0.0000 C   0  0  0  0  0  0  0  0  0  0  0  0
    0.8675    0.4975    0.0000 C   0  0  0  0  0  0  0  0  0  0  0  0
    0.8675    1.5027    0.0000 C   0  0  0  0  0  0  0  0  0  0  0  0
    1.7350    2.0001    0.0000 O   0  0  0  0  0  0  0  0  0  0  0  0
    1.7379    3.0001    0.0000 C   0  0  0  0  0  0  0  0  0  0  0  0
    2.6054    3.4976    0.0000 C   0  0  0  0  0  0  0  0  0  0  0  0
    2.1080    4.3651    0.0000 F   0  0  0  0  0  0  0  0  0  0  0  0
    3.1029    2.6301    0.0000 F   0  0  0  0  0  0  0  0  0  0  0  0
    3.4729    3.9950    0.0000 F   0  0  0  0  0  0  0  0  0  0  0  0
    0.0000    2.0104    0.0000 N   0  0  0  0  0  0  0  0  0  0  0  0
   -0.8675    1.5027    0.0000 C   0  0  0  0  0  0  0  0  0  0  0  0
   -2.8210   -4.6704    0.0000 C   0  0  0  0  0  0  0  0  0  0  0  0
   -1.8637   -4.3642    0.0000 C   0  0  0  0  0  0  0  0  0  0  0  0
   -1.6542   -3.3864    0.0000 Cl  0  0  0  0  0  0  0  0  0  0  0  0
   -1.1158   -5.0359    0.0000 C   0  0  0  0  0  0  0  0  0  0  0  0
   -1.3252   -6.0137    0.0000 C   0  0  0  0  0  0  0  0  0  0  0  0
   -2.2750   -6.3267    0.0000 C   0  0  0  0  0  0  0  0  0  0  0  0
   -3.0229   -5.6551    0.0000 C   0  0  0  0  0  0  0  0  0  0  0  0
   -3.9726   -5.9682    0.0000 Cl  0  0  0  0  0  0  0  0  0  0  0  0
  1  2  1  0
  2  6  2  0
  2  3  1  0
  3  4  1  0
  4  5  2  0
  5  6  1  0
  6  7  1  0
  7  8  1  0
  8  9  2  0
  8 10  1  0
 10 11  1  0
 11 12  1  0
 12 23  1  0
 12 13  2  0
 13 14  1  0
 14 15  2  0
 15 16  1  0
 16 17  1  0
 17 18  1  0
 18 19  1  0
 18 20  1  0
 18 21  1  0
 15 22  1  0
 22 23  2  0
  5 24  1  0
 24 30  1  0
 24 25  2  0
 25 26  1  0
 25 27  1  0
 27 28  2  0
 28 29  1  0
 29 30  2  0
 30 31  1  0
M  END
>  <SMILES>  (440) 
Cc1onc(-c2c(Cl)cccc2Cl)c1CC(=O)NCc1ccc(OCC(F)(F)F)nc1

>  <CollectionName>  (440) 
chembl

>  <LOG PLASMA PROTEIN BINDING (RAT) (% unbound)>  (440) 
0.65991620007

>  <Internal ID>  (440) 


>  <Source>  (440) 
AstraZeneca

$$$$
CHEMBL1817676
     RDKit          2D

 40 43  0  0  1  0  0  0  0  0999 V2000
    8.7059    3.9788    0.0000 C   0  0  0  0  0  0  0  0  0  0  0  0
    8.7006    2.9788    0.0000 N   0  0  0  0  0  0  0  0  0  0  0  0
    9.5639    2.4742    0.0000 C   0  0  0  0  0  0  0  0  0  0  0  0
    7.8319    2.4834    0.0000 C   0  0  0  0  0  0  0  0  0  0  0  0
    6.9686    2.9880    0.0000 C   0  0  0  0  0  0  0  0  0  0  0  0
    6.0999    2.4927    0.0000 C   0  0  0  0  0  0  0  0  0  0  0  0
    6.0974    1.4926    0.0000 C   0  0  0  0  0  0  0  0  0  0  0  0
    5.2242    0.9947    0.0000 C   0  0  0  0  0  0  0  0  0  0  0  0
    4.3535    1.4968    0.0000 N   0  0  0  0  0  0  0  0  0  0  0  0
    4.3648    2.5019    0.0000 C   0  0  0  0  0  0  0  0  0  0  0  0
    5.2380    2.9998    0.0000 C   0  0  0  0  0  0  0  0  0  0  0  0
    3.4848    1.0014    0.0000 C   0  0  0  0  0  0  0  0  0  0  0  0
    3.4805   -0.0073    0.0000 C   0  0  0  0  0  0  0  0  0  0  0  0
    2.6039   -0.5053    0.0000 C   0  0  0  0  0  0  0  0  0  0  0  0
    2.5983   -1.5053    0.0000 C   0  0  0  0  0  0  0  0  0  0  0  0
    3.4615   -2.0101    0.0000 O   0  0  0  0  0  0  0  0  0  0  0  0
    1.7295   -2.0004    0.0000 N   0  0  0  0  0  0  0  0  0  0  0  0
    1.7240   -3.0004    0.0000 C   0  0  0  0  0  0  0  0  0  0  0  0
    0.8552   -3.4956    0.0000 C   0  0  0  0  0  0  0  0  0  0  0  0
   -0.0088   -2.9920    0.0000 C   0  0  0  0  0  0  0  0  0  0  0  0
   -0.8798   -3.4834    0.0000 C   0  0  0  0  0  0  0  0  0  0  0  0
   -0.8869   -4.4886    0.0000 C   0  0  0  0  0  0  0  0  0  0  0  0
   -1.7578   -4.9799    0.0000 C   0  0  0  0  0  0  0  0  0  0  0  0
   -1.7678   -5.9799    0.0000 O   0  0  0  0  0  0  0  0  0  0  0  0
   -2.6388   -6.4712    0.0000 C   0  0  0  0  0  0  0  0  0  0  0  0
   -3.4998   -5.9626    0.0000 O   0  0  0  0  0  0  0  0  0  0  0  0
   -2.6488   -7.4711    0.0000 N   0  0  0  0  0  0  0  0  0  0  0  0
   -3.5197   -7.9625    0.0000 C   0  0  0  0  0  0  0  0  0  0  0  0
   -4.3907   -8.4538    0.0000 C   0  0  0  0  0  0  0  0  0  0  0  0
   -4.0111   -7.0915    0.0000 C   0  0  0  0  0  0  0  0  0  0  0  0
   -3.0284   -8.8335    0.0000 C   0  0  0  0  0  0  0  0  0  0  0  0
   -0.0230   -5.0024    0.0000 C   0  0  0  0  0  0  0  0  0  0  0  0
    0.8481   -4.5008    0.0000 C   0  0  0  0  0  0  0  0  0  0  0  0
    1.7371    0.0000    0.0000 C   0  0  0  0  0  0  0  0  0  0  0  0
    0.8707   -0.4993    0.0000 C   0  0  0  0  0  0  0  0  0  0  0  0
    0.0000    0.0000    0.0000 C   0  0  0  0  0  0  0  0  0  0  0  0
    0.0000    1.0089    0.0000 C   0  0  0  0  0  0  0  0  0  0  0  0
    0.8707    1.5185    0.0000 C   0  0  0  0  0  0  0  0  0  0  0  0
    1.7414    1.0089    0.0000 C   0  0  0  0  0  0  0  0  0  0  0  0
    2.6125    1.5125    0.0000 N   0  0  0  0  0  0  0  0  0  0  0  0
  1  2  1  0
  2  3  1  0
  2  4  1  0
  4  5  1  0
  5  6  1  0
  6 11  1  0
  6  7  1  0
  7  8  1  0
  8  9  1  0
  9 10  1  0
 10 11  1  0
  9 12  1  0
 12 40  1  0
 12 13  2  0
 13 14  1  0
 14 15  1  0
 15 16  2  0
 15 17  1  0
 17 18  1  0
 19 18  1  1
 19 33  1  0
 19 20  1  0
 20 21  1  0
 21 22  1  0
 22 23  1  6
 23 24  1  0
 24 25  1  0
 25 26  2  0
 25 27  1  0
 27 28  1  0
 28 29  1  0
 28 30  1  0
 28 31  1  0
 22 32  1  0
 32 33  1  0
 14 34  2  0
 34 39  1  0
 34 35  1  0
 35 36  2  0
 36 37  1  0
 37 38  2  0
 38 39  1  0
 39 40  2  0
M  END
>  <SMILES>  (441) 
CN(C)CCC1CCN(c2cc(C(=O)NC[C@H]3CC[C@H](COC(=O)NC(C)(C)C)CC3)c3ccccc3n2)CC1

>  <CollectionName>  (441) 
chembl

>  <LOG PLASMA PROTEIN BINDING (RAT) (% unbound)>  (441) 
0.515873843712

>  <Internal ID>  (441) 


>  <Source>  (441) 
AstraZeneca

$$$$
CHEMBL1818189
     RDKit          2D

 31 33  0  0  1  0  0  0  0  0999 V2000
   -6.9502   -7.9874    0.0000 C   0  0  0  0  0  0  0  0  0  0  0  0
   -6.0820   -7.4912    0.0000 C   0  0  0  0  0  0  0  0  0  0  0  0
   -6.5781   -6.6230    0.0000 C   0  0  0  0  0  0  0  0  0  0  0  0
   -5.5858   -8.3594    0.0000 C   0  0  0  0  0  0  0  0  0  0  0  0
   -5.2137   -6.9950    0.0000 O   0  0  0  0  0  0  0  0  0  0  0  0
   -5.2093   -5.9950    0.0000 C   0  0  0  0  0  0  0  0  0  0  0  0
   -6.0732   -5.4912    0.0000 O   0  0  0  0  0  0  0  0  0  0  0  0
   -4.3411   -5.4989    0.0000 N   0  0  0  0  0  0  0  0  0  0  0  0
   -4.3367   -4.4989    0.0000 C   0  0  0  0  0  0  0  0  0  0  0  0
   -3.4685   -4.0027    0.0000 C   0  0  0  0  0  0  0  0  0  0  0  0
   -3.4670   -2.9975    0.0000 C   0  0  0  0  0  0  0  0  0  0  0  0
   -2.5988   -2.5012    0.0000 C   0  0  0  0  0  0  0  0  0  0  0  0
   -1.7321   -3.0000    0.0000 C   0  0  0  0  0  0  0  0  0  0  0  0
   -0.8660   -2.5000    0.0000 C   0  0  0  0  0  0  0  0  0  0  0  0
   -0.8660   -1.5000    0.0000 N   0  0  0  0  0  0  0  0  0  0  0  0
    0.0000   -1.0000    0.0000 C   0  0  0  0  0  0  0  0  0  0  0  0
    0.8660   -1.5000    0.0000 O   0  0  0  0  0  0  0  0  0  0  0  0
    0.0000    0.0000    0.0000 C   0  0  0  0  0  0  0  0  0  0  0  0
   -0.8675    0.4975    0.0000 C   0  0  0  0  0  0  0  0  0  0  0  0
   -0.8675    1.5027    0.0000 C   0  0  0  0  0  0  0  0  0  0  0  0
   -0.0000    2.0104    0.0000 N   0  0  0  0  0  0  0  0  0  0  0  0
    0.8675    1.5027    0.0000 C   0  0  0  0  0  0  0  0  0  0  0  0
    0.8675    0.4975    0.0000 C   0  0  0  0  0  0  0  0  0  0  0  0
    1.7350    2.0001    0.0000 C   0  0  0  0  0  0  0  0  0  0  0  0
    1.7350    3.0053    0.0000 C   0  0  0  0  0  0  0  0  0  0  0  0
    2.6025    3.5028    0.0000 C   0  0  0  0  0  0  0  0  0  0  0  0
    3.4700    3.0053    0.0000 C   0  0  0  0  0  0  0  0  0  0  0  0
    3.4700    2.0001    0.0000 C   0  0  0  0  0  0  0  0  0  0  0  0
    2.6025    1.4924    0.0000 C   0  0  0  0  0  0  0  0  0  0  0  0
   -1.7335   -4.0052    0.0000 C   0  0  0  0  0  0  0  0  0  0  0  0
   -2.6017   -4.5116    0.0000 C   0  0  0  0  0  0  0  0  0  0  0  0
  1  2  1  0
  2  3  1  0
  2  4  1  0
  2  5  1  0
  5  6  1  0
  6  7  2  0
  6  8  1  0
  8  9  1  0
 10  9  1  6
 10 31  1  0
 10 11  1  0
 11 12  1  0
 12 13  1  0
 13 14  1  1
 14 15  1  0
 15 16  1  0
 16 17  2  0
 16 18  1  0
 18 23  1  0
 18 19  2  0
 19 20  1  0
 20 21  2  0
 21 22  1  0
 22 23  2  0
 22 24  1  0
 24 29  1  0
 24 25  2  0
 25 26  1  0
 26 27  2  0
 27 28  1  0
 28 29  2  0
 13 30  1  0
 30 31  1  0
M  END
>  <SMILES>  (442) 
CC(C)(C)OC(=O)NC[C@H]1CC[C@H](CNC(=O)c2ccnc(-c3ccccc3)c2)CC1

>  <CollectionName>  (442) 
chembl

>  <LOG PLASMA PROTEIN BINDING (RAT) (% unbound)>  (442) 
-0.0222763947112

>  <Internal ID>  (442) 


>  <Source>  (442) 
AstraZeneca

$$$$
CHEMBL55076
     RDKit          2D

 28 27  0  0  1  0  0  0  0  0999 V2000
    0.0000    0.0000    0.0000 C   0  0  0  0  0  0  0  0  0  0  0  0
    1.0000    0.0000    0.0000 C   0  0  0  0  0  0  0  0  0  0  0  0
    1.5000    0.8660    0.0000 C   0  0  0  0  0  0  0  0  0  0  0  0
    2.5000    0.8660    0.0000 C   0  0  0  0  0  0  0  0  0  0  0  0
    3.0000    1.7321    0.0000 C   0  0  0  0  0  0  0  0  0  0  0  0
    4.0000    1.7321    0.0000 C   0  0  0  0  0  0  0  0  0  0  0  0
    4.5000    2.5981    0.0000 C   0  0  0  0  0  0  0  0  0  0  0  0
    4.0000    3.4641    0.0000 O   0  0  0  0  0  0  0  0  0  0  0  0
    5.5000    2.5981    0.0000 C   0  0  0  0  0  0  0  0  0  0  0  0
    6.0000    3.4641    0.0000 C   0  0  0  0  0  0  0  0  0  0  0  0
    7.0000    3.4641    0.0000 C   0  0  0  0  0  0  0  0  0  0  0  0
    7.5000    4.3301    0.0000 C   0  0  0  0  0  0  0  0  0  0  0  0
    8.5000    4.3301    0.0000 C   0  0  0  0  0  0  0  0  0  0  0  0
    9.0000    5.1962    0.0000 C   0  0  0  0  0  0  0  0  0  0  0  0
   10.0000    5.1962    0.0000 C   0  0  0  0  0  0  0  0  0  0  0  0
   10.5000    6.0622    0.0000 C   0  0  0  0  0  0  0  0  0  0  0  0
   11.5000    6.0622    0.0000 C   0  0  0  0  0  0  0  0  0  0  0  0
   12.0000    6.9282    0.0000 C   0  0  0  0  0  0  0  0  0  0  0  0
   11.5000    7.7942    0.0000 O   0  0  0  0  0  0  0  0  0  0  0  0
   13.0000    6.9282    0.0000 C   0  0  0  0  0  0  0  0  0  0  0  0
   13.5000    6.0622    0.0000 O   0  0  0  0  0  0  0  0  0  0  0  0
   13.5000    7.7942    0.0000 C   0  0  0  0  0  0  0  0  0  0  0  0
   12.6340    8.2942    0.0000 N   0  0  0  0  0  0  0  0  0  0  0  0
   14.3660    7.2942    0.0000 C   0  0  0  0  0  0  0  0  0  0  0  0
   15.2321    7.7942    0.0000 O   0  0  0  0  0  0  0  0  0  0  0  0
   14.0000    8.6603    0.0000 C   0  0  0  0  0  0  0  0  0  0  0  0
   15.0000    8.6603    0.0000 O   0  0  0  0  0  0  0  0  0  0  0  0
   13.5000    9.5263    0.0000 O   0  0  0  0  0  0  0  0  0  0  0  0
  1  2  1  0
  2  3  1  0
  3  4  1  0
  4  5  1  0
  5  6  1  0
  6  7  1  0
  7  8  2  0
  7  9  1  0
  9 10  1  0
 10 11  1  0
 11 12  1  0
 12 13  1  0
 13 14  1  0
 14 15  1  0
 15 16  2  0
 16 17  1  0
 17 18  1  0
 18 19  1  1
 18 20  1  0
 20 21  1  1
 20 22  1  0
 22 23  1  1
 22 24  1  0
 24 25  1  0
 22 26  1  0
 26 27  2  0
 26 28  1  0
M  END
>  <SMILES>  (443) 
CCCCCCC(=O)CCCCCC/C=C/C[C@@H](O)[C@H](O)[C@@](N)(CO)C(=O)O

>  <CollectionName>  (443) 
chembl

>  <LOG PLASMA PROTEIN BINDING (RAT) (% unbound)>  (443) 
0.447158031342

>  <Internal ID>  (443) 


>  <Source>  (443) 
AstraZeneca

$$$$
CHEMBL111402
     RDKit          2D

 33 36  0  0  0  0  0  0  0  0999 V2000
    0.8675   -1.4978    0.0000 O   0  0  0  0  0  0  0  0  0  0  0  0
    0.8680   -0.4978    0.0000 C   0  0  0  0  0  0  0  0  0  0  0  0
    0.0000    0.0000    0.0000 C   0  0  0  0  0  0  0  0  0  0  0  0
    0.0000    1.0058    0.0000 C   0  0  0  0  0  0  0  0  0  0  0  0
    0.8680    1.5138    0.0000 C   0  0  0  0  0  0  0  0  0  0  0  0
    0.8680    2.5138    0.0000 C   0  0  0  0  0  0  0  0  0  0  0  0
    0.0020    3.0138    0.0000 C   0  0  0  0  0  0  0  0  0  0  0  0
    0.0020    4.0138    0.0000 N   0  0  0  0  0  0  0  0  0  0  0  0
   -0.8641    4.5138    0.0000 C   0  0  0  0  0  0  0  0  0  0  0  0
   -0.8641    5.5138    0.0000 C   0  0  0  0  0  0  0  0  0  0  0  0
   -1.7301    6.0138    0.0000 C   0  0  0  0  0  0  0  0  0  0  0  0
   -1.7301    7.0138    0.0000 S   0  0  0  0  0  0  0  0  0  0  0  0
   -2.5961    7.5138    0.0000 C   0  0  0  0  0  0  0  0  0  0  0  0
   -2.5961    8.5138    0.0000 C   0  0  0  0  0  0  0  0  0  0  0  0
   -3.4621    9.0138    0.0000 O   0  0  0  0  0  0  0  0  0  0  0  0
   -3.4621   10.0138    0.0000 C   0  0  0  0  0  0  0  0  0  0  0  0
   -4.3282   10.5138    0.0000 C   0  0  0  0  0  0  0  0  0  0  0  0
   -4.3282   11.5138    0.0000 C   0  0  0  0  0  0  0  0  0  0  0  0
   -5.1991   12.0206    0.0000 C   0  0  0  0  0  0  0  0  0  0  0  0
   -5.1977   13.0263    0.0000 C   0  0  0  0  0  0  0  0  0  0  0  0
   -4.3254   13.5251    0.0000 C   0  0  0  0  0  0  0  0  0  0  0  0
   -3.4600   13.0239    0.0000 C   0  0  0  0  0  0  0  0  0  0  0  0
   -2.5895   13.5194    0.0000 C   0  0  0  0  0  0  0  0  0  0  0  0
   -1.7229   13.0192    0.0000 C   0  0  0  0  0  0  0  0  0  0  0  0
   -1.7256   12.0135    0.0000 C   0  0  0  0  0  0  0  0  0  0  0  0
   -2.5949   11.5081    0.0000 C   0  0  0  0  0  0  0  0  0  0  0  0
   -3.4614   12.0182    0.0000 C   0  0  0  0  0  0  0  0  0  0  0  0
    1.7360    1.0058    0.0000 C   0  0  0  0  0  0  0  0  0  0  0  0
    2.6938    1.3169    0.0000 S   0  0  0  0  0  0  0  0  0  0  0  0
    3.2858    0.5023    0.0000 C   0  0  0  0  0  0  0  0  0  0  0  0
    4.2858    0.5024    0.0000 O   0  0  0  0  0  0  0  0  0  0  0  0
    2.6938   -0.3125    0.0000 N   0  0  0  0  0  0  0  0  0  0  0  0
    1.7360   -0.0012    0.0000 C   0  0  0  0  0  0  0  0  0  0  0  0
  1  2  1  0
  2 33  2  0
  2  3  1  0
  3  4  2  0
  4  5  1  0
  5  6  1  0
  6  7  1  0
  7  8  1  0
  8  9  1  0
  9 10  1  0
 10 11  1  0
 11 12  1  0
 12 13  1  0
 13 14  1  0
 14 15  1  0
 15 16  1  0
 16 17  1  0
 17 18  1  0
 18 27  1  0
 18 19  2  0
 19 20  1  0
 20 21  2  0
 21 22  1  0
 22 27  2  0
 22 23  1  0
 23 24  2  0
 24 25  1  0
 25 26  2  0
 26 27  1  0
  5 28  2  0
 28 33  1  0
 28 29  1  0
 29 30  1  0
 30 31  1  0
 30 32  2  0
 32 33  1  0
M  END
>  <SMILES>  (444) 
Oc1nc2c(O)ccc(CCNCCCSCCOCCc3cccc4ccccc34)c2s1

>  <CollectionName>  (444) 
chembl

>  <LOG PLASMA PROTEIN BINDING (RAT) (% unbound)>  (444) 
0.0863598306747

>  <Internal ID>  (444) 


>  <Source>  (444) 
AstraZeneca

$$$$
CHEMBL1778628
     RDKit          2D

 23 24  0  0  0  0  0  0  0  0999 V2000
   -0.8616    2.5129    0.0000 O   0  0  0  0  0  0  0  0  0  0  0  0
    0.0051    3.0116    0.0000 C   0  0  0  0  0  0  0  0  0  0  0  0
    0.0066    4.0116    0.0000 O   0  0  0  0  0  0  0  0  0  0  0  0
    0.8704    2.5104    0.0000 C   0  0  0  0  0  0  0  0  0  0  0  0
    1.7372    3.0091    0.0000 O   0  0  0  0  0  0  0  0  0  0  0  0
    2.6025    2.5078    0.0000 C   0  0  0  0  0  0  0  0  0  0  0  0
    3.4700    3.0053    0.0000 C   0  0  0  0  0  0  0  0  0  0  0  0
    4.3375    2.5078    0.0000 C   0  0  0  0  0  0  0  0  0  0  0  0
    4.3375    1.5026    0.0000 C   0  0  0  0  0  0  0  0  0  0  0  0
    3.4700    0.9949    0.0000 C   0  0  0  0  0  0  0  0  0  0  0  0
    2.6025    1.5026    0.0000 C   0  0  0  0  0  0  0  0  0  0  0  0
    1.7350    1.0052    0.0000 C   0  0  0  0  0  0  0  0  0  0  0  0
    1.7350   -0.0000    0.0000 C   0  0  0  0  0  0  0  0  0  0  0  0
    0.8675   -0.4975    0.0000 C   0  0  0  0  0  0  0  0  0  0  0  0
    0.0000    0.0000    0.0000 C   0  0  0  0  0  0  0  0  0  0  0  0
    0.0000    1.0052    0.0000 C   0  0  0  0  0  0  0  0  0  0  0  0
    0.8675    1.5129    0.0000 C   0  0  0  0  0  0  0  0  0  0  0  0
   -0.8675    1.5026    0.0000 C   0  0  0  0  0  0  0  0  0  0  0  0
   -1.7350    2.0001    0.0000 N   0  0  0  0  0  0  0  0  0  0  0  0
    5.2050    1.0052    0.0000 C   0  0  0  0  0  0  0  0  0  0  0  0
    5.7024    1.8727    0.0000 F   0  0  0  0  0  0  0  0  0  0  0  0
    4.7076    0.1377    0.0000 F   0  0  0  0  0  0  0  0  0  0  0  0
    6.0725    0.5078    0.0000 F   0  0  0  0  0  0  0  0  0  0  0  0
  1  2  1  0
  2  3  2  0
  2  4  1  0
  4  5  1  0
  5  6  1  0
  6 11  2  0
  6  7  1  0
  7  8  2  0
  8  9  1  0
  9 10  2  0
 10 11  1  0
 11 12  1  0
 12 17  1  0
 12 13  2  0
 13 14  1  0
 14 15  2  0
 15 16  1  0
 16 17  2  0
 16 18  1  0
 18 19  3  0
  9 20  1  0
 20 21  1  0
 20 22  1  0
 20 23  1  0
M  END
>  <SMILES>  (445) 
N#Cc1cccc(-c2cc(C(F)(F)F)ccc2OCC(=O)O)c1

>  <CollectionName>  (445) 
chembl

>  <LOG PLASMA PROTEIN BINDING (RAT) (% unbound)>  (445) 
0.54406804435

>  <Internal ID>  (445) 


>  <Source>  (445) 
AstraZeneca

$$$$
CHEMBL2338406
     RDKit          2D

 28 29  0  0  0  0  0  0  0  0999 V2000
    3.4641    7.0104    0.0000 C   0  0  0  0  0  0  0  0  0  0  0  0
    2.5981    6.5104    0.0000 C   0  0  0  0  0  0  0  0  0  0  0  0
    3.0981    5.6444    0.0000 C   0  0  0  0  0  0  0  0  0  0  0  0
    2.0981    7.3764    0.0000 C   0  0  0  0  0  0  0  0  0  0  0  0
    1.7321    6.0104    0.0000 N   0  0  0  0  0  0  0  0  0  0  0  0
    1.7321    5.0104    0.0000 C   0  0  0  0  0  0  0  0  0  0  0  0
    2.5981    4.5104    0.0000 O   0  0  0  0  0  0  0  0  0  0  0  0
    0.8660    4.5104    0.0000 N   0  0  0  0  0  0  0  0  0  0  0  0
    0.8660    3.5104    0.0000 C   0  0  0  0  0  0  0  0  0  0  0  0
   -0.0000    3.0104    0.0000 C   0  0  0  0  0  0  0  0  0  0  0  0
   -0.0000    2.0104    0.0000 N   0  0  0  0  0  0  0  0  0  0  0  0
   -0.8675    1.5027    0.0000 C   0  0  0  0  0  0  0  0  0  0  0  0
   -0.8675    0.4975    0.0000 C   0  0  0  0  0  0  0  0  0  0  0  0
    0.0000    0.0000    0.0000 C   0  0  0  0  0  0  0  0  0  0  0  0
    0.0000   -1.0000    0.0000 C   0  0  0  0  0  0  0  0  0  0  0  0
    0.8660   -1.5000    0.0000 N   0  0  0  0  0  0  0  0  0  0  0  0
    0.8660   -2.5000    0.0000 C   0  0  0  0  0  0  0  0  0  0  0  0
    0.0000   -3.0000    0.0000 O   0  0  0  0  0  0  0  0  0  0  0  0
    1.7321   -3.0000    0.0000 C   0  0  0  0  0  0  0  0  0  0  0  0
    2.5966   -2.4975    0.0000 C   0  0  0  0  0  0  0  0  0  0  0  0
    3.4672   -3.0001    0.0000 C   0  0  0  0  0  0  0  0  0  0  0  0
    4.3317   -2.4975    0.0000 Cl  0  0  0  0  0  0  0  0  0  0  0  0
    3.4731   -4.0052    0.0000 C   0  0  0  0  0  0  0  0  0  0  0  0
    2.5997   -4.5026    0.0000 C   0  0  0  0  0  0  0  0  0  0  0  0
    2.5967   -5.5026    0.0000 Cl  0  0  0  0  0  0  0  0  0  0  0  0
    1.7291   -4.0000    0.0000 C   0  0  0  0  0  0  0  0  0  0  0  0
    0.8675    0.4975    0.0000 C   0  0  0  0  0  0  0  0  0  0  0  0
    0.8675    1.5027    0.0000 C   0  0  0  0  0  0  0  0  0  0  0  0
  1  2  1  0
  2  3  1  0
  2  4  1  0
  2  5  1  0
  5  6  1  0
  6  7  2  0
  6  8  1  0
  8  9  1  0
  9 10  1  0
 10 11  1  0
 11 28  1  0
 11 12  1  0
 12 13  1  0
 13 14  1  0
 14 15  1  0
 15 16  1  0
 16 17  1  0
 17 18  2  0
 17 19  1  0
 19 26  1  0
 19 20  2  0
 20 21  1  0
 21 22  1  0
 21 23  2  0
 23 24  1  0
 24 25  1  0
 24 26  2  0
 14 27  1  0
 27 28  1  0
M  END
>  <SMILES>  (446) 
CC(C)(C)NC(=O)NCCN1CCC(CNC(=O)c2cc(Cl)cc(Cl)c2)CC1

>  <CollectionName>  (446) 
chembl

>  <LOG PLASMA PROTEIN BINDING (RAT) (% unbound)>  (446) 
1.22942584792

>  <Internal ID>  (446) 


>  <Source>  (446) 
AstraZeneca

$$$$
CHEMBL2338408
     RDKit          2D

 28 29  0  0  1  0  0  0  0  0999 V2000
   -2.5966   -5.4975    0.0000 C   0  0  0  0  0  0  0  0  0  0  0  0
   -1.7306   -4.9975    0.0000 C   0  0  0  0  0  0  0  0  0  0  0  0
   -2.2306   -4.1315    0.0000 C   0  0  0  0  0  0  0  0  0  0  0  0
   -1.2306   -5.8635    0.0000 C   0  0  0  0  0  0  0  0  0  0  0  0
   -0.8645   -4.4975    0.0000 N   0  0  0  0  0  0  0  0  0  0  0  0
   -0.8645   -3.4975    0.0000 C   0  0  0  0  0  0  0  0  0  0  0  0
   -1.7306   -2.9975    0.0000 O   0  0  0  0  0  0  0  0  0  0  0  0
    0.0015   -2.9975    0.0000 N   0  0  0  0  0  0  0  0  0  0  0  0
    0.0015   -1.9975    0.0000 C   0  0  0  0  0  0  0  0  0  0  0  0
    0.8675   -1.4975    0.0000 C   0  0  0  0  0  0  0  0  0  0  0  0
    0.8675   -0.4975    0.0000 N   0  0  0  0  0  0  0  0  0  0  0  0
    0.0000    0.0000    0.0000 C   0  0  0  0  0  0  0  0  0  0  0  0
    0.0000    1.0052    0.0000 C   0  0  0  0  0  0  0  0  0  0  0  0
    0.8675    1.5129    0.0000 O   0  0  0  0  0  0  0  0  0  0  0  0
    1.7350    1.0052    0.0000 C   0  0  0  0  0  0  0  0  0  0  0  0
    2.6025    1.5026    0.0000 C   0  0  0  0  0  0  0  0  0  0  0  0
    2.6054    2.5026    0.0000 N   0  0  0  0  0  0  0  0  0  0  0  0
    3.4729    3.0001    0.0000 C   0  0  0  0  0  0  0  0  0  0  0  0
    4.3375    2.4975    0.0000 O   0  0  0  0  0  0  0  0  0  0  0  0
    3.4759    4.0001    0.0000 C   0  0  0  0  0  0  0  0  0  0  0  0
    2.6099    4.5001    0.0000 C   0  0  0  0  0  0  0  0  0  0  0  0
    2.6128    5.5053    0.0000 C   0  0  0  0  0  0  0  0  0  0  0  0
    1.7468    6.0053    0.0000 Cl  0  0  0  0  0  0  0  0  0  0  0  0
    3.4818    6.0105    0.0000 C   0  0  0  0  0  0  0  0  0  0  0  0
    4.3478    5.5002    0.0000 C   0  0  0  0  0  0  0  0  0  0  0  0
    5.2168    5.9951    0.0000 Cl  0  0  0  0  0  0  0  0  0  0  0  0
    4.3449    4.4950    0.0000 C   0  0  0  0  0  0  0  0  0  0  0  0
    1.7350    0.0000    0.0000 C   0  0  0  0  0  0  0  0  0  0  0  0
  1  2  1  0
  2  3  1  0
  2  4  1  0
  2  5  1  0
  5  6  1  0
  6  7  2  0
  6  8  1  0
  8  9  1  0
  9 10  1  0
 10 11  1  0
 11 28  1  0
 11 12  1  0
 12 13  1  0
 13 14  1  0
 14 15  1  0
 15 16  1  0
 16 17  1  0
 17 18  1  0
 18 19  2  0
 18 20  1  0
 20 27  1  0
 20 21  2  0
 21 22  1  0
 22 23  1  0
 22 24  2  0
 24 25  1  0
 25 26  1  0
 25 27  2  0
 15 28  1  0
M  END
>  <SMILES>  (447) 
CC(C)(C)NC(=O)NCCN1CCOC(CNC(=O)c2cc(Cl)cc(Cl)c2)C1

>  <CollectionName>  (447) 
chembl

>  <LOG PLASMA PROTEIN BINDING (RAT) (% unbound)>  (447) 
0.829946695942

>  <Internal ID>  (447) 


>  <Source>  (447) 
AstraZeneca

$$$$
CHEMBL16
     RDKit          2D

 19 21  0  0  0  0  0  0  0  0999 V2000
    2.2648    1.2596    0.0000 O   0  0  0  0  0  0  0  0  0  0  0  0
    1.3133    0.9519    0.0000 C   0  0  0  0  0  0  0  0  0  0  0  0
    1.0015   -0.0000    0.0000 N   0  0  0  0  0  0  0  0  0  0  0  0
    0.0000    0.0000    0.0000 C   0  0  0  0  0  0  0  0  0  0  0  0
   -0.5889   -0.8082    0.0000 O   0  0  0  0  0  0  0  0  0  0  0  0
   -0.3065    0.9519    0.0000 C   0  0  0  0  0  0  0  0  0  0  0  0
    0.5008    1.5428    0.0000 N   0  0  0  0  0  0  0  0  0  0  0  0
   -1.9056    0.2411    0.0000 C   0  0  0  0  0  0  0  0  0  0  0  0
   -2.0083   -0.7589    0.0000 C   0  0  0  0  0  0  0  0  0  0  0  0
   -2.9221   -1.1651    0.0000 C   0  0  0  0  0  0  0  0  0  0  0  0
   -3.7343   -0.5816    0.0000 C   0  0  0  0  0  0  0  0  0  0  0  0
   -3.6315    0.4183    0.0000 C   0  0  0  0  0  0  0  0  0  0  0  0
   -2.7167    0.8347    0.0000 C   0  0  0  0  0  0  0  0  0  0  0  0
   -0.8078    1.8172    0.0000 C   0  0  0  0  0  0  0  0  0  0  0  0
   -1.8130    1.8128    0.0000 C   0  0  0  0  0  0  0  0  0  0  0  0
   -2.3143    2.6780    0.0000 C   0  0  0  0  0  0  0  0  0  0  0  0
   -1.8206    3.5477    0.0000 C   0  0  0  0  0  0  0  0  0  0  0  0
   -0.8154    3.5522    0.0000 C   0  0  0  0  0  0  0  0  0  0  0  0
   -0.3039    2.6869    0.0000 C   0  0  0  0  0  0  0  0  0  0  0  0
  1  2  1  0
  2  7  1  0
  2  3  2  0
  3  4  1  0
  4  5  2  0
  4  6  1  0
  6  7  1  0
  6  8  1  0
  8 13  1  0
  8  9  2  0
  9 10  1  0
 10 11  2  0
 11 12  1  0
 12 13  2  0
  6 14  1  0
 14 19  1  0
 14 15  2  0
 15 16  1  0
 16 17  2  0
 17 18  1  0
 18 19  2  0
M  END
>  <SMILES>  (448) 
O=C1N=C(O)NC1(c1ccccc1)c1ccccc1

>  <CollectionName>  (448) 
chembl

>  <LOG PLASMA PROTEIN BINDING (RAT) (% unbound)>  (448) 
1.25406445291

>  <Internal ID>  (448) 


>  <Source>  (448) 
AstraZeneca

$$$$
CHEMBL1496905
     RDKit          2D

 24 27  0  0  1  0  0  0  0  0999 V2000
   -1.7320   -0.0025    0.0000 C   0  0  0  0  0  0  0  0  0  0  0  0
   -0.8653   -0.5013    0.0000 O   0  0  0  0  0  0  0  0  0  0  0  0
    0.0000    0.0000    0.0000 C   0  0  0  0  0  0  0  0  0  0  0  0
    0.0000    1.0058    0.0000 C   0  0  0  0  0  0  0  0  0  0  0  0
    0.8680    1.5138    0.0000 C   0  0  0  0  0  0  0  0  0  0  0  0
    1.7360    1.0058    0.0000 C   0  0  0  0  0  0  0  0  0  0  0  0
    2.6938    1.3169    0.0000 N   0  0  0  0  0  0  0  0  0  0  0  0
    3.0028    2.2680    0.0000 C   0  0  0  0  0  0  0  0  0  0  0  0
    3.9810    2.4759    0.0000 C   0  0  0  0  0  0  0  0  0  0  0  0
    4.2907    3.4327    0.0000 C   0  0  0  0  0  0  0  0  0  0  0  0
    5.2740    3.6399    0.0000 O   0  0  0  0  0  0  0  0  0  0  0  0
    5.9439    2.8974    0.0000 C   0  0  0  0  0  0  0  0  0  0  0  0
    6.9245    3.1020    0.0000 C   0  0  0  0  0  0  0  0  0  0  0  0
    7.5959    2.3602    0.0000 C   0  0  0  0  0  0  0  0  0  0  0  0
    7.2848    1.4038    0.0000 C   0  0  0  0  0  0  0  0  0  0  0  0
    6.3025    1.1893    0.0000 C   0  0  0  0  0  0  0  0  0  0  0  0
    5.6341    1.9406    0.0000 C   0  0  0  0  0  0  0  0  0  0  0  0
    4.6545    1.7263    0.0000 O   0  0  0  0  0  0  0  0  0  0  0  0
    3.2858    0.5023    0.0000 C   0  0  0  0  0  0  0  0  0  0  0  0
    4.2858    0.5024    0.0000 O   0  0  0  0  0  0  0  0  0  0  0  0
    2.6938   -0.3125    0.0000 C   0  0  0  0  0  0  0  0  0  0  0  0
    3.0028   -1.2636    0.0000 O   0  0  0  0  0  0  0  0  0  0  0  0
    1.7360   -0.0012    0.0000 C   0  0  0  0  0  0  0  0  0  0  0  0
    0.8680   -0.4978    0.0000 C   0  0  0  0  0  0  0  0  0  0  0  0
  1  2  1  0
  2  3  1  0
  3 24  2  0
  3  4  1  0
  4  5  2  0
  5  6  1  0
  6 23  2  0
  6  7  1  0
  7  8  1  0
  8  9  1  0
  9 18  1  0
  9 10  1  0
 10 11  1  0
 11 12  1  0
 12 17  2  0
 12 13  1  0
 13 14  2  0
 14 15  1  0
 15 16  2  0
 16 17  1  0
 17 18  1  0
  7 19  1  0
 19 20  2  0
 19 21  1  0
 21 22  2  0
 21 23  1  0
 23 24  1  0
M  END
>  <SMILES>  (449) 
COc1ccc2c(c1)C(=O)C(=O)N2CC1COc2ccccc2O1

>  <CollectionName>  (449) 
chembl

>  <LOG PLASMA PROTEIN BINDING (RAT) (% unbound)>  (449) 
-0.229147988358

>  <Internal ID>  (449) 


>  <Source>  (449) 
AstraZeneca

$$$$
CHEMBL2313227
     RDKit          2D

 25 27  0  0  1  0  0  0  0  0999 V2000
   -0.0036   -3.0012    0.0000 C   0  0  0  0  0  0  0  0  0  0  0  0
    0.8631   -2.5025    0.0000 O   0  0  0  0  0  0  0  0  0  0  0  0
    0.8646   -1.5025    0.0000 C   0  0  0  0  0  0  0  0  0  0  0  0
    1.7313   -1.0038    0.0000 C   0  0  0  0  0  0  0  0  0  0  0  0
    1.7328   -0.0038    0.0000 N   0  0  0  0  0  0  0  0  0  0  0  0
    0.8675    0.4975    0.0000 C   0  0  0  0  0  0  0  0  0  0  0  0
    0.0000    0.0000    0.0000 C   0  0  0  0  0  0  0  0  0  0  0  0
   -0.8675    0.4975    0.0000 C   0  0  0  0  0  0  0  0  0  0  0  0
   -0.8675    1.5027    0.0000 C   0  0  0  0  0  0  0  0  0  0  0  0
   -0.0000    2.0104    0.0000 N   0  0  0  0  0  0  0  0  0  0  0  0
    0.8675    1.5027    0.0000 C   0  0  0  0  0  0  0  0  0  0  0  0
    2.5995    0.4950    0.0000 P   0  0  0  0  0  0  0  0  0  0  0  0
    2.1008    1.3617    0.0000 O   0  0  0  0  0  0  0  0  0  0  0  0
    3.4663    0.9937    0.0000 C   0  0  0  0  0  0  0  0  0  0  0  0
    3.4648    1.9989    0.0000 C   0  0  0  0  0  0  0  0  0  0  0  0
    4.3315    2.4977    0.0000 C   0  0  0  0  0  0  0  0  0  0  0  0
    5.1998    2.0015    0.0000 C   0  0  0  0  0  0  0  0  0  0  0  0
    5.2013    0.9963    0.0000 C   0  0  0  0  0  0  0  0  0  0  0  0
    4.3346    0.4873    0.0000 C   0  0  0  0  0  0  0  0  0  0  0  0
    3.4724   -1.0218    0.0000 C   0  0  0  0  0  0  0  0  0  0  0  0
    4.4775   -1.0203    0.0000 C   0  0  0  0  0  0  0  0  0  0  0  0
    4.9764   -1.8871    0.0000 C   0  0  0  0  0  0  0  0  0  0  0  0
    4.4802   -2.7553    0.0000 C   0  0  0  0  0  0  0  0  0  0  0  0
    3.4750   -2.7568    0.0000 C   0  0  0  0  0  0  0  0  0  0  0  0
    2.9660   -1.8901    0.0000 C   0  0  0  0  0  0  0  0  0  0  0  0
  1  2  1  0
  2  3  1  0
  3  4  1  0
  4  5  1  0
  5  6  1  0
  6 11  1  0
  6  7  2  0
  7  8  1  0
  8  9  2  0
  9 10  1  0
 10 11  2  0
  5 12  1  0
 12 13  2  0
 12 14  1  0
 14 19  1  0
 14 15  2  0
 15 16  1  0
 16 17  2  0
 17 18  1  0
 18 19  2  0
 12 20  1  0
 20 25  1  0
 20 21  2  0
 21 22  1  0
 22 23  2  0
 23 24  1  0
 24 25  2  0
M  END
>  <SMILES>  (450) 
COCCN(c1cccnc1)P(=O)(c1ccccc1)c1ccccc1

>  <CollectionName>  (450) 
chembl

>  <LOG PLASMA PROTEIN BINDING (RAT) (% unbound)>  (450) 
1.57518784493

>  <Internal ID>  (450) 


>  <Source>  (450) 
AstraZeneca

$$$$
CHEMBL2325014
     RDKit          2D

 31 34  0  0  0  0  0  0  0  0999 V2000
   -1.2577    1.2605    0.0000 N   0  0  0  0  0  0  0  0  0  0  0  0
   -0.3065    0.9519    0.0000 C   0  0  0  0  0  0  0  0  0  0  0  0
    0.5008    1.5428    0.0000 N   0  0  0  0  0  0  0  0  0  0  0  0
    1.3133    0.9519    0.0000 N   0  0  0  0  0  0  0  0  0  0  0  0
    1.0015    0.0000    0.0000 C   0  0  0  0  0  0  0  0  0  0  0  0
    0.0000    0.0000    0.0000 C   0  0  0  0  0  0  0  0  0  0  0  0
   -0.5889   -0.8082    0.0000 C   0  0  0  0  0  0  0  0  0  0  0  0
   -1.5880   -0.6989    0.0000 C   0  0  0  0  0  0  0  0  0  0  0  0
   -2.1727   -1.5165    0.0000 C   0  0  0  0  0  0  0  0  0  0  0  0
   -3.1677   -1.4165    0.0000 Cl  0  0  0  0  0  0  0  0  0  0  0  0
   -1.7624   -2.4341    0.0000 C   0  0  0  0  0  0  0  0  0  0  0  0
   -0.7674   -2.5342    0.0000 C   0  0  0  0  0  0  0  0  0  0  0  0
   -0.1785   -1.7259    0.0000 C   0  0  0  0  0  0  0  0  0  0  0  0
    0.8160   -1.8302    0.0000 O   0  0  0  0  0  0  0  0  0  0  0  0
    1.2229   -2.7437    0.0000 C   0  0  0  0  0  0  0  0  0  0  0  0
    2.2173   -2.8495    0.0000 C   0  0  0  0  0  0  0  0  0  0  0  0
    2.6282   -3.7612    0.0000 C   0  0  0  0  0  0  0  0  0  0  0  0
    3.6231   -3.8627    0.0000 F   0  0  0  0  0  0  0  0  0  0  0  0
    2.0387   -4.5754    0.0000 C   0  0  0  0  0  0  0  0  0  0  0  0
    1.0383   -4.4779    0.0000 C   0  0  0  0  0  0  0  0  0  0  0  0
    0.6334   -3.5579    0.0000 C   0  0  0  0  0  0  0  0  0  0  0  0
   -0.3610   -3.4520    0.0000 Cl  0  0  0  0  0  0  0  0  0  0  0  0
    2.4496   -5.4871    0.0000 S   0  0  0  0  0  0  0  0  0  0  0  0
    1.5379   -5.8980    0.0000 O   0  0  0  0  0  0  0  0  0  0  0  0
    3.3613   -5.0762    0.0000 O   0  0  0  0  0  0  0  0  0  0  0  0
    2.8605   -6.3988    0.0000 N   0  0  0  0  0  0  0  0  0  0  0  0
    3.8555   -6.4987    0.0000 C   0  0  0  0  0  0  0  0  0  0  0  0
    4.3606   -7.3618    0.0000 C   0  0  0  0  0  0  0  0  0  0  0  0
    5.3393   -7.1541    0.0000 S   0  0  0  0  0  0  0  0  0  0  0  0
    5.4406   -6.1546    0.0000 C   0  0  0  0  0  0  0  0  0  0  0  0
    4.5232   -5.7523    0.0000 N   0  0  0  0  0  0  0  0  0  0  0  0
  1  2  1  0
  2  6  2  0
  2  3  1  0
  3  4  1  0
  4  5  2  0
  5  6  1  0
  6  7  1  0
  7 13  1  0
  7  8  2  0
  8  9  1  0
  9 10  1  0
  9 11  2  0
 11 12  1  0
 12 13  2  0
 13 14  1  0
 14 15  1  0
 15 21  1  0
 15 16  2  0
 16 17  1  0
 17 18  1  0
 17 19  2  0
 19 20  1  0
 20 21  2  0
 21 22  1  0
 19 23  1  0
 23 24  2  0
 23 25  2  0
 23 26  1  0
 26 27  1  0
 27 31  1  0
 27 28  2  0
 28 29  1  0
 29 30  1  0
 30 31  2  0
M  END
>  <SMILES>  (451) 
Nc1[nH]ncc1-c1cc(Cl)ccc1Oc1cc(F)c(S(=O)(=O)Nc2cscn2)cc1Cl

>  <CollectionName>  (451) 
chembl

>  <LOG PLASMA PROTEIN BINDING (RAT) (% unbound)>  (451) 
-0.259637310506

>  <Internal ID>  (451) 


>  <Source>  (451) 
AstraZeneca

$$$$
CHEMBL452861
     RDKit          2D

 19 20  0  0  1  0  0  0  0  0999 V2000
    5.1846    7.0193    0.0000 C   0  0  0  0  0  0  0  0  0  0  0  0
    5.1872    6.0193    0.0000 C   0  0  0  0  0  0  0  0  0  0  0  0
    6.0546    5.5216    0.0000 C   0  0  0  0  0  0  0  0  0  0  0  0
    4.3226    5.5170    0.0000 N   0  0  0  0  0  0  0  0  0  0  0  0
    4.3252    4.5170    0.0000 C   0  0  0  0  0  0  0  0  0  0  0  0
    3.4605    4.0147    0.0000 C   0  0  0  0  0  0  0  0  0  0  0  0
    2.5932    4.5124    0.0000 O   0  0  0  0  0  0  0  0  0  0  0  0
    3.4632    3.0147    0.0000 C   0  0  0  0  0  0  0  0  0  0  0  0
    2.5985    2.5124    0.0000 O   0  0  0  0  0  0  0  0  0  0  0  0
    2.6012    1.5124    0.0000 C   0  0  0  0  0  0  0  0  0  0  0  0
    3.4735    1.0079    0.0000 C   0  0  0  0  0  0  0  0  0  0  0  0
    3.4748    0.0022    0.0000 C   0  0  0  0  0  0  0  0  0  0  0  0
    2.6038   -0.4989    0.0000 C   0  0  0  0  0  0  0  0  0  0  0  0
    1.7371    0.0000    0.0000 C   0  0  0  0  0  0  0  0  0  0  0  0
    0.8679   -0.4978    0.0000 C   0  0  0  0  0  0  0  0  0  0  0  0
    0.0000    0.0000    0.0000 C   0  0  0  0  0  0  0  0  0  0  0  0
    0.0000    1.0057    0.0000 C   0  0  0  0  0  0  0  0  0  0  0  0
    0.8679    1.5135    0.0000 C   0  0  0  0  0  0  0  0  0  0  0  0
    1.7358    1.0057    0.0000 C   0  0  0  0  0  0  0  0  0  0  0  0
  1  2  1  0
  2  3  1  0
  2  4  1  0
  4  5  1  0
  5  6  1  0
  6  7  1  1
  6  8  1  0
  8  9  1  0
  9 10  1  0
 10 19  2  0
 10 11  1  0
 11 12  2  0
 12 13  1  0
 13 14  2  0
 14 19  1  0
 14 15  1  0
 15 16  2  0
 16 17  1  0
 17 18  2  0
 18 19  1  0
M  END
>  <SMILES>  (452) 
CC(C)NC[C@H](O)COc1cccc2ccccc12

>  <CollectionName>  (452) 
chembl

>  <LOG PLASMA PROTEIN BINDING (RAT) (% unbound)>  (452) 
1.31069331234

>  <Internal ID>  (452) 


>  <Source>  (452) 
AstraZeneca

$$$$
CHEMBL461384
     RDKit          2D

 35 38  0  0  0  0  0  0  0  0999 V2000
    0.1820   -7.7681    0.0000 C   0  0  0  0  0  0  0  0  0  0  0  0
   -0.2232   -6.8539    0.0000 C   0  0  0  0  0  0  0  0  0  0  0  0
   -1.2176   -6.7477    0.0000 C   0  0  0  0  0  0  0  0  0  0  0  0
    0.3658   -6.0458    0.0000 C   0  0  0  0  0  0  0  0  0  0  0  0
    1.3674   -6.0486    0.0000 N   0  0  0  0  0  0  0  0  0  0  0  0
    1.6786   -5.0935    0.0000 O   0  0  0  0  0  0  0  0  0  0  0  0
    0.8675   -4.5079    0.0000 C   0  0  0  0  0  0  0  0  0  0  0  0
    0.0568   -5.0932    0.0000 N   0  0  0  0  0  0  0  0  0  0  0  0
    0.8675   -3.5079    0.0000 C   0  0  0  0  0  0  0  0  0  0  0  0
    0.0000   -3.0104    0.0000 C   0  0  0  0  0  0  0  0  0  0  0  0
    0.0000   -2.0052    0.0000 C   0  0  0  0  0  0  0  0  0  0  0  0
    0.8675   -1.4975    0.0000 N   0  0  0  0  0  0  0  0  0  0  0  0
    1.7350   -2.0052    0.0000 C   0  0  0  0  0  0  0  0  0  0  0  0
    1.7350   -3.0104    0.0000 C   0  0  0  0  0  0  0  0  0  0  0  0
    0.8675   -0.4975    0.0000 C   0  0  0  0  0  0  0  0  0  0  0  0
    1.7350    0.0000    0.0000 N   0  0  0  0  0  0  0  0  0  0  0  0
    1.7350    1.0052    0.0000 C   0  0  0  0  0  0  0  0  0  0  0  0
    0.8675    1.5129    0.0000 N   0  0  0  0  0  0  0  0  0  0  0  0
    0.0000    1.0052    0.0000 C   0  0  0  0  0  0  0  0  0  0  0  0
   -0.8675    1.5026    0.0000 N   0  0  0  0  0  0  0  0  0  0  0  0
   -0.8704    2.5026    0.0000 C   0  0  0  0  0  0  0  0  0  0  0  0
   -1.7372    3.0014    0.0000 C   0  0  0  0  0  0  0  0  0  0  0  0
   -1.7446    4.0014    0.0000 C   0  0  0  0  0  0  0  0  0  0  0  0
   -0.8762    4.5078    0.0000 C   0  0  0  0  0  0  0  0  0  0  0  0
   -0.0006    4.0142    0.0000 C   0  0  0  0  0  0  0  0  0  0  0  0
   -0.0021    3.0091    0.0000 C   0  0  0  0  0  0  0  0  0  0  0  0
    0.8646    2.5103    0.0000 F   0  0  0  0  0  0  0  0  0  0  0  0
   -0.8836    5.5078    0.0000 S   0  0  0  0  0  0  0  0  0  0  0  0
    0.1164    5.5151    0.0000 O   0  0  0  0  0  0  0  0  0  0  0  0
   -1.8836    5.5004    0.0000 O   0  0  0  0  0  0  0  0  0  0  0  0
   -0.8909    6.5077    0.0000 C   0  0  0  0  0  0  0  0  0  0  0  0
    0.0000    0.0000    0.0000 C   0  0  0  0  0  0  0  0  0  0  0  0
   -0.8653   -0.5013    0.0000 N   0  0  0  0  0  0  0  0  0  0  0  0
   -1.7320   -0.0025    0.0000 O   0  0  0  0  0  0  0  0  0  0  0  0
   -0.8638   -1.5013    0.0000 O   0  0  0  0  0  0  0  0  0  0  0  0
  1  2  1  0
  2  3  1  0
  2  4  1  0
  4  8  1  0
  4  5  2  0
  5  6  1  0
  6  7  1  0
  7  8  2  0
  7  9  1  0
  9 14  1  0
  9 10  1  0
 10 11  1  0
 11 12  1  0
 12 13  1  0
 13 14  1  0
 12 15  1  0
 15 32  1  0
 15 16  2  0
 16 17  1  0
 17 18  2  0
 18 19  1  0
 19 20  1  0
 20 21  1  0
 21 26  1  0
 21 22  2  0
 22 23  1  0
 23 24  2  0
 24 25  1  0
 25 26  2  0
 26 27  1  0
 24 28  1  0
 28 29  2  0
 28 30  2  0
 28 31  1  0
 19 32  2  0
 32 33  1  0
 33 34  2  0
 33 35  1  0
M  CHG  2  33   1  35  -1
M  END
>  <SMILES>  (453) 
CC(C)c1noc(C2CCN(c3ncnc(Nc4ccc(S(C)(=O)=O)cc4F)c3[N+](=O)[O-])CC2)n1

>  <CollectionName>  (453) 
chembl

>  <LOG PLASMA PROTEIN BINDING (RAT) (% unbound)>  (453) 
0.204119982656

>  <Internal ID>  (453) 


>  <Source>  (453) 
AstraZeneca

$$$$
CHEMBL464081
     RDKit          2D

 30 33  0  0  1  0  0  0  0  0999 V2000
    5.9574    1.6603    0.0000 C   0  0  0  0  0  0  0  0  0  0  0  0
    7.5771    2.3229    0.0000 C   0  0  0  0  0  0  0  0  0  0  0  0
    7.8001    0.5871    0.0000 C   0  0  0  0  0  0  0  0  0  0  0  0
    8.6532    2.1791    0.0000 C   0  0  0  0  0  0  0  0  0  0  0  0
    7.7836    1.6855    0.0000 C   0  0  0  0  0  0  0  0  0  0  0  0
    6.9035    2.1971    0.0000 C   0  0  0  0  0  0  0  0  0  0  0  0
    6.9005    3.2151    0.0000 C   0  0  0  0  0  0  0  0  0  0  0  0
    5.3875    4.0946    0.0000 C   0  0  0  0  0  0  0  0  0  0  0  0
    4.3465    3.4976    0.0000 S   0  0  0  0  0  0  0  0  0  0  0  0
    4.8440    2.6301    0.0000 O   0  0  0  0  0  0  0  0  0  0  0  0
    3.8491    4.3651    0.0000 O   0  0  0  0  0  0  0  0  0  0  0  0
    3.4790    3.0002    0.0000 N   0  0  0  0  0  0  0  0  0  0  0  0
    2.6071    3.5002    0.0000 C   0  0  0  0  0  0  0  0  0  0  0  0
    1.7350    3.0002    0.0000 C   0  0  0  0  0  0  0  0  0  0  0  0
    1.7350    2.0001    0.0000 N   0  0  0  0  0  0  0  0  0  0  0  0
    2.5981    1.4951    0.0000 C   0  0  0  0  0  0  0  0  0  0  0  0
    3.4701    1.9951    0.0000 C   0  0  0  0  0  0  0  0  0  0  0  0
    0.8675    1.5027    0.0000 C   0  0  0  0  0  0  0  0  0  0  0  0
    0.8675    0.4975    0.0000 C   0  0  0  0  0  0  0  0  0  0  0  0
    0.0000    0.0000    0.0000 C   0  0  0  0  0  0  0  0  0  0  0  0
   -0.8675    0.4975    0.0000 C   0  0  0  0  0  0  0  0  0  0  0  0
   -0.8675    1.5027    0.0000 C   0  0  0  0  0  0  0  0  0  0  0  0
    0.0000    2.0104    0.0000 N   0  0  0  0  0  0  0  0  0  0  0  0
   -1.7328   -0.0038    0.0000 C   0  0  0  0  0  0  0  0  0  0  0  0
   -1.2315   -0.8691    0.0000 F   0  0  0  0  0  0  0  0  0  0  0  0
   -2.2341    0.8615    0.0000 F   0  0  0  0  0  0  0  0  0  0  0  0
   -2.5981   -0.5050    0.0000 F   0  0  0  0  0  0  0  0  0  0  0  0
    7.7866    3.7163    0.0000 C   0  0  0  0  0  0  0  0  0  0  0  0
    7.7925    4.7163    0.0000 O   0  0  0  0  0  0  0  0  0  0  0  0
    8.6667    3.2047    0.0000 C   0  0  0  0  0  0  0  0  0  0  0  0
  1  2  1  0
  7  2  1  0
  2  3  1  0
  4  2  1  0
  4 30  1  1
  4  5  1  0
  5  6  1  0
  6  7  1  0
  7  8  1  6
  8  9  1  0
  9 10  2  0
  9 11  2  0
  9 12  1  0
 12 17  1  0
 12 13  1  0
 13 14  1  0
 14 15  1  0
 15 16  1  0
 16 17  1  0
 15 18  1  0
 18 23  1  0
 18 19  2  0
 19 20  1  0
 20 21  2  0
 21 22  1  0
 22 23  2  0
 21 24  1  0
 24 25  1  0
 24 26  1  0
 24 27  1  0
  7 28  1  0
 28 29  2  0
 28 30  1  0
M  END
>  <SMILES>  (454) 
CC1(C)[C@@H]2CC[C@@]1(CS(=O)(=O)N1CCN(c3ccc(C(F)(F)F)cn3)CC1)C(=O)C2

>  <CollectionName>  (454) 
chembl

>  <LOG PLASMA PROTEIN BINDING (RAT) (% unbound)>  (454) 
0.281033367248

>  <Internal ID>  (454) 


>  <Source>  (454) 
AstraZeneca

$$$$
CHEMBL1486109
     RDKit          2D

 19 21  0  0  0  0  0  0  0  0999 V2000
    5.4533    6.9534    0.0000 C   0  0  0  0  0  0  0  0  0  0  0  0
    4.4582    6.8546    0.0000 O   0  0  0  0  0  0  0  0  0  0  0  0
    4.0463    5.9434    0.0000 C   0  0  0  0  0  0  0  0  0  0  0  0
    4.6348    5.1285    0.0000 C   0  0  0  0  0  0  0  0  0  0  0  0
    4.2229    4.2172    0.0000 C   0  0  0  0  0  0  0  0  0  0  0  0
    3.2284    4.1126    0.0000 C   0  0  0  0  0  0  0  0  0  0  0  0
    2.6398    4.9275    0.0000 C   0  0  0  0  0  0  0  0  0  0  0  0
    3.0457    5.8470    0.0000 C   0  0  0  0  0  0  0  0  0  0  0  0
    2.8204    3.1996    0.0000 C   0  0  0  0  0  0  0  0  0  0  0  0
    3.3221    2.3341    0.0000 O   0  0  0  0  0  0  0  0  0  0  0  0
    2.6483    1.5890    0.0000 N   0  0  0  0  0  0  0  0  0  0  0  0
    1.7350    2.0001    0.0000 C   0  0  0  0  0  0  0  0  0  0  0  0
    1.8414    2.9960    0.0000 N   0  0  0  0  0  0  0  0  0  0  0  0
    0.8675    1.5027    0.0000 C   0  0  0  0  0  0  0  0  0  0  0  0
    0.8675    0.4975    0.0000 C   0  0  0  0  0  0  0  0  0  0  0  0
    0.0000    0.0000    0.0000 C   0  0  0  0  0  0  0  0  0  0  0  0
   -0.8675    0.4975    0.0000 C   0  0  0  0  0  0  0  0  0  0  0  0
   -0.8675    1.5027    0.0000 C   0  0  0  0  0  0  0  0  0  0  0  0
   -0.0000    2.0104    0.0000 N   0  0  0  0  0  0  0  0  0  0  0  0
  1  2  1  0
  2  3  1  0
  3  8  2  0
  3  4  1  0
  4  5  2  0
  5  6  1  0
  6  7  2  0
  7  8  1  0
  6  9  1  0
  9 13  2  0
  9 10  1  0
 10 11  1  0
 11 12  2  0
 12 13  1  0
 12 14  1  0
 14 19  1  0
 14 15  2  0
 15 16  1  0
 16 17  2  0
 17 18  1  0
 18 19  2  0
M  END
>  <SMILES>  (455) 
COc1ccc(-c2nc(-c3ccccn3)no2)cc1

>  <CollectionName>  (455) 
chembl

>  <LOG PLASMA PROTEIN BINDING (RAT) (% unbound)>  (455) 
0.735598899698

>  <Internal ID>  (455) 


>  <Source>  (455) 
AstraZeneca

$$$$
CHEMBL1671897
     RDKit          2D

 36 39  0  0  0  0  0  0  0  0999 V2000
   12.1240   -4.0186    0.0000 C   0  0  0  0  0  0  0  0  0  0  0  0
   12.1298   -3.0186    0.0000 O   0  0  0  0  0  0  0  0  0  0  0  0
   11.2667   -2.5136    0.0000 C   0  0  0  0  0  0  0  0  0  0  0  0
   10.3947   -3.0136    0.0000 C   0  0  0  0  0  0  0  0  0  0  0  0
    9.5316   -2.5086    0.0000 C   0  0  0  0  0  0  0  0  0  0  0  0
    9.5316   -1.5086    0.0000 C   0  0  0  0  0  0  0  0  0  0  0  0
    8.6663   -1.0073    0.0000 C   0  0  0  0  0  0  0  0  0  0  0  0
    7.7996   -1.5061    0.0000 C   0  0  0  0  0  0  0  0  0  0  0  0
    7.7981   -2.5061    0.0000 O   0  0  0  0  0  0  0  0  0  0  0  0
    6.9343   -1.0048    0.0000 N   0  0  0  0  0  0  0  0  0  0  0  0
    6.0675   -1.5035    0.0000 C   0  0  0  0  0  0  0  0  0  0  0  0
    5.2022   -1.0023    0.0000 C   0  0  0  0  0  0  0  0  0  0  0  0
    5.2022   -0.0023    0.0000 C   0  0  0  0  0  0  0  0  0  0  0  0
    4.3391    0.5028    0.0000 C   0  0  0  0  0  0  0  0  0  0  0  0
    3.4671    0.0027    0.0000 C   0  0  0  0  0  0  0  0  0  0  0  0
    3.4582   -1.0024    0.0000 C   0  0  0  0  0  0  0  0  0  0  0  0
    4.3302   -1.5024    0.0000 C   0  0  0  0  0  0  0  0  0  0  0  0
    4.3303   -2.5024    0.0000 C   0  0  0  0  0  0  0  0  0  0  0  0
    5.1956   -3.0036    0.0000 C   0  0  0  0  0  0  0  0  0  0  0  0
    5.2000   -4.0036    0.0000 C   0  0  0  0  0  0  0  0  0  0  0  0
    4.3302   -4.5075    0.0000 C   0  0  0  0  0  0  0  0  0  0  0  0
    3.4561   -4.0114    0.0000 C   0  0  0  0  0  0  0  0  0  0  0  0
    3.4605   -3.0063    0.0000 C   0  0  0  0  0  0  0  0  0  0  0  0
    2.5952   -2.5050    0.0000 C   0  0  0  0  0  0  0  0  0  0  0  0
    1.7284   -3.0038    0.0000 O   0  0  0  0  0  0  0  0  0  0  0  0
    2.5966   -1.5050    0.0000 N   0  0  0  0  0  0  0  0  0  0  0  0
    1.7313   -1.0038    0.0000 C   0  0  0  0  0  0  0  0  0  0  0  0
    1.7328   -0.0038    0.0000 C   0  0  0  0  0  0  0  0  0  0  0  0
    0.8675    0.4975    0.0000 C   0  0  0  0  0  0  0  0  0  0  0  0
    0.0000    0.0000    0.0000 C   0  0  0  0  0  0  0  0  0  0  0  0
   -0.8675    0.4975    0.0000 C   0  0  0  0  0  0  0  0  0  0  0  0
   -0.8675    1.5027    0.0000 C   0  0  0  0  0  0  0  0  0  0  0  0
   -0.0000    2.0104    0.0000 N   0  0  0  0  0  0  0  0  0  0  0  0
    0.8675    1.5027    0.0000 C   0  0  0  0  0  0  0  0  0  0  0  0
   10.4036   -1.0085    0.0000 C   0  0  0  0  0  0  0  0  0  0  0  0
   11.2756   -1.5085    0.0000 C   0  0  0  0  0  0  0  0  0  0  0  0
  1  2  1  0
  2  3  1  0
  3 36  2  0
  3  4  1  0
  4  5  2  0
  5  6  1  0
  6  7  1  0
  7  8  1  0
  8  9  2  0
  8 10  1  0
 10 11  1  0
 11 12  1  0
 12 17  1  0
 12 13  2  0
 13 14  1  0
 14 15  2  0
 15 16  1  0
 16 17  2  0
 17 18  1  0
 18 23  1  0
 18 19  2  0
 19 20  1  0
 20 21  2  0
 21 22  1  0
 22 23  2  0
 23 24  1  0
 24 25  2  0
 24 26  1  0
 26 27  1  0
 27 28  1  0
 28 29  1  0
 29 34  1  0
 29 30  2  0
 30 31  1  0
 31 32  2  0
 32 33  1  0
 33 34  2  0
  6 35  2  0
 35 36  1  0
M  END
>  <SMILES>  (456) 
COc1ccc(CC(=O)NCc2ccccc2-c2ccccc2C(=O)NCCc2cccnc2)cc1

>  <CollectionName>  (456) 
chembl

>  <LOG PLASMA PROTEIN BINDING (RAT) (% unbound)>  (456) 
0.922206277439

>  <Internal ID>  (456) 


>  <Source>  (456) 
AstraZeneca

$$$$
CHEMBL1689117
     RDKit          2D

 29 31  0  0  0  0  0  0  0  0999 V2000
    3.4685   -2.9975    0.0000 O   0  0  0  0  0  0  0  0  0  0  0  0
    2.6033   -3.4988    0.0000 C   0  0  0  0  0  0  0  0  0  0  0  0
    2.6048   -4.4988    0.0000 O   0  0  0  0  0  0  0  0  0  0  0  0
    1.7365   -3.0001    0.0000 C   0  0  0  0  0  0  0  0  0  0  0  0
    0.8712   -3.5014    0.0000 O   0  0  0  0  0  0  0  0  0  0  0  0
    0.0044   -3.0027    0.0000 C   0  0  0  0  0  0  0  0  0  0  0  0
   -0.8616   -3.5028    0.0000 C   0  0  0  0  0  0  0  0  0  0  0  0
   -1.7306   -3.0078    0.0000 C   0  0  0  0  0  0  0  0  0  0  0  0
   -1.7335   -2.0026    0.0000 C   0  0  0  0  0  0  0  0  0  0  0  0
   -2.6025   -1.5077    0.0000 Cl  0  0  0  0  0  0  0  0  0  0  0  0
   -0.8675   -1.4924    0.0000 C   0  0  0  0  0  0  0  0  0  0  0  0
    0.0015   -1.9975    0.0000 C   0  0  0  0  0  0  0  0  0  0  0  0
    0.8675   -1.4975    0.0000 C   0  0  0  0  0  0  0  0  0  0  0  0
    0.8675   -0.4975    0.0000 N   0  0  0  0  0  0  0  0  0  0  0  0
    0.0000    0.0000    0.0000 C   0  0  0  0  0  0  0  0  0  0  0  0
    0.0000    1.0052    0.0000 C   0  0  0  0  0  0  0  0  0  0  0  0
    0.8675    1.5129    0.0000 N   0  0  0  0  0  0  0  0  0  0  0  0
    1.7350    1.0052    0.0000 C   0  0  0  0  0  0  0  0  0  0  0  0
    1.7350    0.0000    0.0000 C   0  0  0  0  0  0  0  0  0  0  0  0
    0.8675    2.5129    0.0000 S   0  0  0  0  0  0  0  0  0  0  0  0
    1.8675    2.5129    0.0000 O   0  0  0  0  0  0  0  0  0  0  0  0
   -0.1325    2.5129    0.0000 O   0  0  0  0  0  0  0  0  0  0  0  0
    0.8675    3.5129    0.0000 C   0  0  0  0  0  0  0  0  0  0  0  0
   -0.0045    4.0129    0.0000 C   0  0  0  0  0  0  0  0  0  0  0  0
   -0.0046    5.0130    0.0000 C   0  0  0  0  0  0  0  0  0  0  0  0
    0.8586    5.5180    0.0000 C   0  0  0  0  0  0  0  0  0  0  0  0
    0.8542    6.5180    0.0000 F   0  0  0  0  0  0  0  0  0  0  0  0
    1.7306    5.0180    0.0000 C   0  0  0  0  0  0  0  0  0  0  0  0
    1.7395    4.0129    0.0000 C   0  0  0  0  0  0  0  0  0  0  0  0
  1  2  1  0
  2  3  2  0
  2  4  1  0
  4  5  1  0
  5  6  1  0
  6 12  2  0
  6  7  1  0
  7  8  2  0
  8  9  1  0
  9 10  1  0
  9 11  2  0
 11 12  1  0
 12 13  1  0
 13 14  1  0
 14 19  1  0
 14 15  1  0
 15 16  1  0
 16 17  1  0
 17 18  1  0
 18 19  1  0
 17 20  1  0
 20 21  2  0
 20 22  2  0
 20 23  1  0
 23 29  1  0
 23 24  2  0
 24 25  1  0
 25 26  2  0
 26 27  1  0
 26 28  1  0
 28 29  2  0
M  END
>  <SMILES>  (457) 
O=C(O)COc1ccc(Cl)cc1CN1CCN(S(=O)(=O)c2ccc(F)cc2)CC1

>  <CollectionName>  (457) 
chembl

>  <LOG PLASMA PROTEIN BINDING (RAT) (% unbound)>  (457) 
0.949390006645

>  <Internal ID>  (457) 


>  <Source>  (457) 
AstraZeneca

$$$$
CHEMBL2216902
     RDKit          2D

 41 47  0  0  0  0  0  0  0  0999 V2000
    4.7857    1.3683    0.0000 C   0  0  0  0  0  0  0  0  0  0  0  0
    4.2858    0.5023    0.0000 C   0  0  0  0  0  0  0  0  0  0  0  0
    4.7858   -0.3637    0.0000 C   0  0  0  0  0  0  0  0  0  0  0  0
    3.2858    0.5022    0.0000 C   0  0  0  0  0  0  0  0  0  0  0  0
    2.6938   -0.3126    0.0000 N   0  0  0  0  0  0  0  0  0  0  0  0
    1.7360   -0.0013    0.0000 C   0  0  0  0  0  0  0  0  0  0  0  0
    0.8680   -0.4979    0.0000 C   0  0  0  0  0  0  0  0  0  0  0  0
    0.0000    0.0000    0.0000 C   0  0  0  0  0  0  0  0  0  0  0  0
    0.0000    1.0058    0.0000 C   0  0  0  0  0  0  0  0  0  0  0  0
    0.8680    1.5137    0.0000 C   0  0  0  0  0  0  0  0  0  0  0  0
    1.7360    1.0058    0.0000 C   0  0  0  0  0  0  0  0  0  0  0  0
    2.6938    1.3168    0.0000 N   0  0  0  0  0  0  0  0  0  0  0  0
    3.0029    2.2678    0.0000 C   0  0  0  0  0  0  0  0  0  0  0  0
    2.3309    3.0163    0.0000 N   0  0  0  0  0  0  0  0  0  0  0  0
    2.6375    3.9741    0.0000 C   0  0  0  0  0  0  0  0  0  0  0  0
    1.9694    4.7182    0.0000 N   0  0  0  0  0  0  0  0  0  0  0  0
    0.9916    4.5088    0.0000 C   0  0  0  0  0  0  0  0  0  0  0  0
    0.3200    5.2568    0.0000 C   0  0  0  0  0  0  0  0  0  0  0  0
    0.6264    6.2141    0.0000 O   0  0  0  0  0  0  0  0  0  0  0  0
    1.6110    6.4159    0.0000 C   0  0  0  0  0  0  0  0  0  0  0  0
    2.2826    5.6679    0.0000 C   0  0  0  0  0  0  0  0  0  0  0  0
    3.6227    4.1760    0.0000 C   0  0  0  0  0  0  0  0  0  0  0  0
    4.1276    5.0473    0.0000 N   0  0  0  0  0  0  0  0  0  0  0  0
    5.1123    4.8367    0.0000 C   0  0  0  0  0  0  0  0  0  0  0  0
    5.8564    5.5048    0.0000 O   0  0  0  0  0  0  0  0  0  0  0  0
    5.6498    6.4832    0.0000 C   0  0  0  0  0  0  0  0  0  0  0  0
    4.8120    7.0289    0.0000 C   0  0  0  0  0  0  0  0  0  0  0  0
    5.3577    7.8668    0.0000 N   0  0  0  0  0  0  0  0  0  0  0  0
    6.1956    7.3210    0.0000 C   0  0  0  0  0  0  0  0  0  0  0  0
    5.1512    8.8452    0.0000 C   0  0  0  0  0  0  0  0  0  0  0  0
    4.1996    9.1528    0.0000 C   0  0  0  0  0  0  0  0  0  0  0  0
    3.9920   10.1363    0.0000 C   0  0  0  0  0  0  0  0  0  0  0  0
    4.7359   10.8123    0.0000 S   0  0  0  0  0  0  0  0  0  0  0  0
    3.9475   11.4275    0.0000 O   0  0  0  0  0  0  0  0  0  0  0  0
    5.2083   11.6936    0.0000 O   0  0  0  0  0  0  0  0  0  0  0  0
    5.6896   10.4947    0.0000 C   0  0  0  0  0  0  0  0  0  0  0  0
    5.8972    9.5112    0.0000 C   0  0  0  0  0  0  0  0  0  0  0  0
    5.2162    3.8349    0.0000 N   0  0  0  0  0  0  0  0  0  0  0  0
    6.0814    3.3336    0.0000 C   0  0  0  0  0  0  0  0  0  0  0  0
    4.2955    3.4266    0.0000 C   0  0  0  0  0  0  0  0  0  0  0  0
    3.9814    2.4772    0.0000 N   0  0  0  0  0  0  0  0  0  0  0  0
  1  2  1  0
  2  3  1  0
  2  4  1  0
  4 12  1  0
  4  5  2  0
  5  6  1  0
  6 11  2  0
  6  7  1  0
  7  8  2  0
  8  9  1  0
  9 10  2  0
 10 11  1  0
 11 12  1  0
 12 13  1  0
 13 41  1  0
 13 14  2  0
 14 15  1  0
 15 16  1  0
 16 21  1  0
 16 17  1  0
 17 18  1  0
 18 19  1  0
 19 20  1  0
 20 21  1  0
 15 22  2  0
 22 40  1  0
 22 23  1  0
 23 24  2  0
 24 25  1  0
 25 26  1  0
 26 29  1  0
 26 27  1  0
 27 28  1  0
 28 29  1  0
 28 30  1  0
 30 37  1  0
 30 31  1  0
 31 32  1  0
 32 33  1  0
 33 34  2  0
 33 35  2  0
 33 36  1  0
 36 37  1  0
 24 38  1  0
 38 39  1  0
 38 40  1  0
 40 41  2  0
M  END
>  <SMILES>  (458) 
CC(C)c1nc2ccccc2n1-c1nc(N2CCOCC2)c2nc(OC3CN(C4CCS(=O)(=O)CC4)C3)n(C)c2n1

>  <CollectionName>  (458) 
chembl

>  <LOG PLASMA PROTEIN BINDING (RAT) (% unbound)>  (458) 
1.34222522936

>  <Internal ID>  (458) 


>  <Source>  (458) 
AstraZeneca

$$$$
CHEMBL96076
     RDKit          2D

 24 27  0  0  1  0  0  0  0  0999 V2000
    7.9608   -2.7604    0.0000 C   0  0  0  0  0  0  0  0  0  0  0  0
    8.2726   -1.8103    0.0000 O   0  0  0  0  0  0  0  0  0  0  0  0
    7.6056   -1.0652    0.0000 C   0  0  0  0  0  0  0  0  0  0  0  0
    6.6265   -1.2689    0.0000 C   0  0  0  0  0  0  0  0  0  0  0  0
    5.9562   -0.5268    0.0000 C   0  0  0  0  0  0  0  0  0  0  0  0
    6.2682    0.4288    0.0000 C   0  0  0  0  0  0  0  0  0  0  0  0
    5.5979    1.1709    0.0000 C   0  0  0  0  0  0  0  0  0  0  0  0
    4.6201    0.9615    0.0000 N   0  0  0  0  0  0  0  0  0  0  0  0
    4.3095    0.0013    0.0000 C   0  0  0  0  0  0  0  0  0  0  0  0
    3.3258   -0.2052    0.0000 C   0  0  0  0  0  0  0  0  0  0  0  0
    2.6563    0.5419    0.0000 C   0  0  0  0  0  0  0  0  0  0  0  0
    2.9705    1.4970    0.0000 C   0  0  0  0  0  0  0  0  0  0  0  0
    3.9487    1.7045    0.0000 C   0  0  0  0  0  0  0  0  0  0  0  0
    2.1552    2.0893    0.0000 N   0  0  0  0  0  0  0  0  0  0  0  0
    1.3429    1.4971    0.0000 C   0  0  0  0  0  0  0  0  0  0  0  0
    0.3605    1.7075    0.0000 C   0  0  0  0  0  0  0  0  0  0  0  0
   -0.3143    0.9606    0.0000 C   0  0  0  0  0  0  0  0  0  0  0  0
    0.0000    0.0000    0.0000 C   0  0  0  0  0  0  0  0  0  0  0  0
    0.9816   -0.2059    0.0000 C   0  0  0  0  0  0  0  0  0  0  0  0
    1.6513    0.5386    0.0000 C   0  0  0  0  0  0  0  0  0  0  0  0
    7.2504    0.6422    0.0000 C   0  0  0  0  0  0  0  0  0  0  0  0
    7.9175   -0.1097    0.0000 C   0  0  0  0  0  0  0  0  0  0  0  0
    8.8966    0.0940    0.0000 O   0  0  0  0  0  0  0  0  0  0  0  0
    9.5625   -0.6521    0.0000 C   0  0  0  0  0  0  0  0  0  0  0  0
  1  2  1  0
  2  3  1  0
  3 22  2  0
  3  4  1  0
  4  5  2  0
  5  6  1  0
  6  7  1  0
  7  8  1  0
  8 13  1  0
  8  9  1  0
  9 10  1  0
 10 11  1  0
 11 20  1  0
 11 12  2  0
 12 13  1  0
 12 14  1  0
 14 15  1  0
 15 20  2  0
 15 16  1  0
 16 17  2  0
 17 18  1  0
 18 19  2  0
 19 20  1  0
  6 21  2  0
 21 22  1  0
 22 23  1  0
 23 24  1  0
M  END
>  <SMILES>  (459) 
COc1ccc(CN2CCc3c([nH]c4ccccc34)C2)cc1OC

>  <CollectionName>  (459) 
chembl

>  <LOG PLASMA PROTEIN BINDING (RAT) (% unbound)>  (459) 
0.621176281775

>  <Internal ID>  (459) 


>  <Source>  (459) 
AstraZeneca

$$$$
CHEMBL402146
     RDKit          2D

 18 19  0  0  0  0  0  0  0  0999 V2000
   -5.2037   -2.9998    0.0000 F   0  0  0  0  0  0  0  0  0  0  0  0
   -4.3362   -2.5024    0.0000 C   0  0  0  0  0  0  0  0  0  0  0  0
   -4.3318   -1.5023    0.0000 C   0  0  0  0  0  0  0  0  0  0  0  0
   -3.4664   -1.0011    0.0000 C   0  0  0  0  0  0  0  0  0  0  0  0
   -2.5966   -1.5050    0.0000 C   0  0  0  0  0  0  0  0  0  0  0  0
   -2.5922   -2.5101    0.0000 C   0  0  0  0  0  0  0  0  0  0  0  0
   -3.4664   -3.0063    0.0000 C   0  0  0  0  0  0  0  0  0  0  0  0
   -3.4708   -4.0063    0.0000 F   0  0  0  0  0  0  0  0  0  0  0  0
   -1.7313   -1.0038    0.0000 C   0  0  0  0  0  0  0  0  0  0  0  0
   -0.8646   -1.5025    0.0000 O   0  0  0  0  0  0  0  0  0  0  0  0
   -1.7328   -0.0038    0.0000 N   0  0  0  0  0  0  0  0  0  0  0  0
   -0.8675    0.4975    0.0000 C   0  0  0  0  0  0  0  0  0  0  0  0
    0.0000    0.0000    0.0000 C   0  0  0  0  0  0  0  0  0  0  0  0
    0.8675    0.4975    0.0000 C   0  0  0  0  0  0  0  0  0  0  0  0
    0.8675    1.5027    0.0000 C   0  0  0  0  0  0  0  0  0  0  0  0
    1.7350    2.0001    0.0000 Cl  0  0  0  0  0  0  0  0  0  0  0  0
    0.0000    2.0104    0.0000 N   0  0  0  0  0  0  0  0  0  0  0  0
   -0.8675    1.5027    0.0000 C   0  0  0  0  0  0  0  0  0  0  0  0
  1  2  1  0
  2  7  2  0
  2  3  1  0
  3  4  2  0
  4  5  1  0
  5  6  2  0
  6  7  1  0
  7  8  1  0
  5  9  1  0
  9 10  2  0
  9 11  1  0
 11 12  1  0
 12 18  1  0
 12 13  2  0
 13 14  1  0
 14 15  2  0
 15 16  1  0
 15 17  1  0
 17 18  2  0
M  END
>  <SMILES>  (460) 
O=C(Nc1ccc(Cl)nc1)c1ccc(F)c(F)c1

>  <CollectionName>  (460) 
chembl

>  <LOG PLASMA PROTEIN BINDING (RAT) (% unbound)>  (460) 
1.07518185462

>  <Internal ID>  (460) 


>  <Source>  (460) 
AstraZeneca

$$$$
CHEMBL402831
     RDKit          2D

 33 35  0  0  1  0  0  0  0  0999 V2000
    2.5995    1.4976    0.0000 C   0  0  0  0  0  0  0  0  0  0  0  0
    1.7350    2.0001    0.0000 C   0  0  0  0  0  0  0  0  0  0  0  0
    1.7379    3.0001    0.0000 N   0  0  0  0  0  0  0  0  0  0  0  0
    2.6054    3.4976    0.0000 C   0  0  0  0  0  0  0  0  0  0  0  0
    3.4700    2.9950    0.0000 O   0  0  0  0  0  0  0  0  0  0  0  0
    2.6084    4.4976    0.0000 C   0  0  0  0  0  0  0  0  0  0  0  0
    3.6084    4.4946    0.0000 C   0  0  0  0  0  0  0  0  0  0  0  0
    1.6084    4.5005    0.0000 O   0  0  0  0  0  0  0  0  0  0  0  0
    2.6113    5.4976    0.0000 C   0  0  0  0  0  0  0  0  0  0  0  0
    1.6113    5.5005    0.0000 F   0  0  0  0  0  0  0  0  0  0  0  0
    3.6113    5.4946    0.0000 F   0  0  0  0  0  0  0  0  0  0  0  0
    2.6143    6.4976    0.0000 F   0  0  0  0  0  0  0  0  0  0  0  0
    0.8675    1.5027    0.0000 C   0  0  0  0  0  0  0  0  0  0  0  0
   -0.0000    2.0104    0.0000 N   0  0  0  0  0  0  0  0  0  0  0  0
   -0.8675    1.5027    0.0000 C   0  0  0  0  0  0  0  0  0  0  0  0
   -0.8675    0.4975    0.0000 C   0  0  0  0  0  0  0  0  0  0  0  0
    0.0000    0.0000    0.0000 C   0  0  0  0  0  0  0  0  0  0  0  0
    0.8675    0.4975    0.0000 C   0  0  0  0  0  0  0  0  0  0  0  0
    1.7328   -0.0038    0.0000 F   0  0  0  0  0  0  0  0  0  0  0  0
   -1.7328   -0.0038    0.0000 C   0  0  0  0  0  0  0  0  0  0  0  0
   -1.7284   -1.0038    0.0000 C   0  0  0  0  0  0  0  0  0  0  0  0
   -2.5982   -1.5076    0.0000 C   0  0  0  0  0  0  0  0  0  0  0  0
   -2.5938   -2.5076    0.0000 Cl  0  0  0  0  0  0  0  0  0  0  0  0
   -3.4724   -1.0115    0.0000 C   0  0  0  0  0  0  0  0  0  0  0  0
   -3.4679   -0.0063    0.0000 C   0  0  0  0  0  0  0  0  0  0  0  0
   -4.3332    0.4950    0.0000 F   0  0  0  0  0  0  0  0  0  0  0  0
   -2.5981    0.4975    0.0000 C   0  0  0  0  0  0  0  0  0  0  0  0
   -2.5981    1.4975    0.0000 C   0  0  0  0  0  0  0  0  0  0  0  0
   -1.7871    2.0852    0.0000 N   0  0  0  0  0  0  0  0  0  0  0  0
   -2.0983    3.0404    0.0000 O   0  0  0  0  0  0  0  0  0  0  0  0
   -3.0987    3.0358    0.0000 C   0  0  0  0  0  0  0  0  0  0  0  0
   -3.6878    3.8438    0.0000 C   0  0  0  0  0  0  0  0  0  0  0  0
   -3.4091    2.0852    0.0000 N   0  0  0  0  0  0  0  0  0  0  0  0
  2  1  1  6
  2  3  1  0
  3  4  1  0
  4  5  2  0
  4  6  1  0
  6  7  1  6
  6  8  1  0
  6  9  1  0
  9 10  1  0
  9 11  1  0
  9 12  1  0
  2 13  1  0
 13 18  2  0
 13 14  1  0
 14 15  2  0
 15 16  1  0
 16 17  2  0
 17 18  1  0
 18 19  1  0
 16 20  1  0
 20 27  1  0
 20 21  2  0
 21 22  1  0
 22 23  1  0
 22 24  2  0
 24 25  1  0
 25 26  1  0
 25 27  2  0
 27 28  1  0
 28 33  1  0
 28 29  2  0
 29 30  1  0
 30 31  1  0
 31 32  1  0
 31 33  2  0
M  END
>  <SMILES>  (461) 
Cc1nc(-c2c(F)cc(Cl)cc2-c2cnc([C@@H](C)NC(=O)[C@@](C)(O)C(F)(F)F)c(F)c2)no1

>  <CollectionName>  (461) 
chembl

>  <LOG PLASMA PROTEIN BINDING (RAT) (% unbound)>  (461) 
0.553883026644

>  <Internal ID>  (461) 


>  <Source>  (461) 
AstraZeneca

$$$$
CHEMBL1609158
     RDKit          2D

 22 24  0  0  0  0  0  0  0  0999 V2000
    9.3064   -2.9378    0.0000 C   0  0  0  0  0  0  0  0  0  0  0  0
    8.8012   -2.0748    0.0000 C   0  0  0  0  0  0  0  0  0  0  0  0
    7.8012   -2.0807    0.0000 C   0  0  0  0  0  0  0  0  0  0  0  0
    7.2961   -1.2177    0.0000 C   0  0  0  0  0  0  0  0  0  0  0  0
    7.7909   -0.3487    0.0000 O   0  0  0  0  0  0  0  0  0  0  0  0
    6.2961   -1.2236    0.0000 N   0  0  0  0  0  0  0  0  0  0  0  0
    5.7910   -0.3606    0.0000 C   0  0  0  0  0  0  0  0  0  0  0  0
    6.2909    0.5114    0.0000 C   0  0  0  0  0  0  0  0  0  0  0  0
    5.7858    1.3745    0.0000 C   0  0  0  0  0  0  0  0  0  0  0  0
    4.7858    1.3744    0.0000 C   0  0  0  0  0  0  0  0  0  0  0  0
    4.2844    2.2396    0.0000 Cl  0  0  0  0  0  0  0  0  0  0  0  0
    4.2858    0.5024    0.0000 C   0  0  0  0  0  0  0  0  0  0  0  0
    4.7859   -0.3696    0.0000 C   0  0  0  0  0  0  0  0  0  0  0  0
    3.2858    0.5023    0.0000 C   0  0  0  0  0  0  0  0  0  0  0  0
    2.6938    1.3169    0.0000 O   0  0  0  0  0  0  0  0  0  0  0  0
    1.7360    1.0058    0.0000 C   0  0  0  0  0  0  0  0  0  0  0  0
    0.8680    1.5138    0.0000 C   0  0  0  0  0  0  0  0  0  0  0  0
    0.0000    1.0058    0.0000 C   0  0  0  0  0  0  0  0  0  0  0  0
    0.0000    0.0000    0.0000 C   0  0  0  0  0  0  0  0  0  0  0  0
    0.8680   -0.4978    0.0000 N   0  0  0  0  0  0  0  0  0  0  0  0
    1.7360   -0.0012    0.0000 C   0  0  0  0  0  0  0  0  0  0  0  0
    2.6938   -0.3125    0.0000 N   0  0  0  0  0  0  0  0  0  0  0  0
  1  2  1  0
  2  3  1  0
  3  4  1  0
  4  5  2  0
  4  6  1  0
  6  7  1  0
  7 13  2  0
  7  8  1  0
  8  9  2  0
  9 10  1  0
 10 11  1  0
 10 12  2  0
 12 13  1  0
 12 14  1  0
 14 22  2  0
 14 15  1  0
 15 16  1  0
 16 21  2  0
 16 17  1  0
 17 18  2  0
 18 19  1  0
 19 20  2  0
 20 21  1  0
 21 22  1  0
M  END
>  <SMILES>  (462) 
CCCC(=O)Nc1ccc(Cl)c(-c2nc3ncccc3o2)c1

>  <CollectionName>  (462) 
chembl

>  <LOG PLASMA PROTEIN BINDING (RAT) (% unbound)>  (462) 
0.553883026644

>  <Internal ID>  (462) 


>  <Source>  (462) 
AstraZeneca

$$$$
CHEMBL1624529
     RDKit          2D

 30 34  0  0  1  0  0  0  0  0999 V2000
   -3.8213    3.2003    0.0000 N   0  0  0  0  0  0  0  0  0  0  0  0
   -2.9538    2.7027    0.0000 C   0  0  0  0  0  0  0  0  0  0  0  0
   -2.4512    1.8381    0.0000 C   0  0  0  0  0  0  0  0  0  0  0  0
   -1.7799    1.0970    0.0000 C   0  0  0  0  0  0  0  0  0  0  0  0
   -0.8675    1.5063    0.0000 N   0  0  0  0  0  0  0  0  0  0  0  0
   -0.9751    2.5006    0.0000 C   0  0  0  0  0  0  0  0  0  0  0  0
   -1.9538    2.7056    0.0000 C   0  0  0  0  0  0  0  0  0  0  0  0
    0.0000    1.0089    0.0000 C   0  0  0  0  0  0  0  0  0  0  0  0
    0.8707    1.5185    0.0000 N   0  0  0  0  0  0  0  0  0  0  0  0
    1.7414    1.0089    0.0000 C   0  0  0  0  0  0  0  0  0  0  0  0
    2.6125    1.5125    0.0000 N   0  0  0  0  0  0  0  0  0  0  0  0
    3.4848    1.0014    0.0000 C   0  0  0  0  0  0  0  0  0  0  0  0
    3.4805   -0.0073    0.0000 C   0  0  0  0  0  0  0  0  0  0  0  0
    4.3437   -0.5122    0.0000 C   0  0  0  0  0  0  0  0  0  0  0  0
    4.3381   -1.5121    0.0000 O   0  0  0  0  0  0  0  0  0  0  0  0
    5.2125   -0.0170    0.0000 O   0  0  0  0  0  0  0  0  0  0  0  0
    2.6039   -0.5053    0.0000 C   0  0  0  0  0  0  0  0  0  0  0  0
    2.5983   -1.5053    0.0000 O   0  0  0  0  0  0  0  0  0  0  0  0
    1.7371   -0.0000    0.0000 C   0  0  0  0  0  0  0  0  0  0  0  0
    0.8707   -0.4993    0.0000 C   0  0  0  0  0  0  0  0  0  0  0  0
    0.0000    0.0000    0.0000 C   0  0  0  0  0  0  0  0  0  0  0  0
   -0.8653   -0.5013    0.0000 F   0  0  0  0  0  0  0  0  0  0  0  0
    2.6154    2.5125    0.0000 C   0  0  0  0  0  0  0  0  0  0  0  0
    1.7516    3.0163    0.0000 C   0  0  0  0  0  0  0  0  0  0  0  0
    1.7501    4.0163    0.0000 C   0  0  0  0  0  0  0  0  0  0  0  0
    2.6214    4.5176    0.0000 C   0  0  0  0  0  0  0  0  0  0  0  0
    2.6199    5.5176    0.0000 F   0  0  0  0  0  0  0  0  0  0  0  0
    3.4941    4.0189    0.0000 C   0  0  0  0  0  0  0  0  0  0  0  0
    3.4867    3.0138    0.0000 C   0  0  0  0  0  0  0  0  0  0  0  0
    4.3505    2.5100    0.0000 F   0  0  0  0  0  0  0  0  0  0  0  0
  1  2  1  0
  2  7  1  0
  2  3  1  0
  3  7  1  0
  3  4  1  0
  4  5  1  0
  5  6  1  0
  6  7  1  0
  5  8  1  0
  8 21  1  0
  8  9  2  0
  9 10  1  0
 10 19  2  0
 10 11  1  0
 11 12  1  0
 12 13  2  0
 13 14  1  0
 14 15  2  0
 14 16  1  0
 13 17  1  0
 17 18  2  0
 17 19  1  0
 19 20  1  0
 20 21  2  0
 21 22  1  0
 11 23  1  0
 23 29  1  0
 23 24  2  0
 24 25  1  0
 25 26  2  0
 26 27  1  0
 26 28  1  0
 28 29  2  0
 29 30  1  0
M  END
>  <SMILES>  (463) 
NC1C2CN(c3nc4c(cc3F)c(=O)c(C(=O)O)cn4-c3ccc(F)cc3F)CC12

>  <CollectionName>  (463) 
chembl

>  <LOG PLASMA PROTEIN BINDING (RAT) (% unbound)>  (463) 
0.922206277439

>  <Internal ID>  (463) 


>  <Source>  (463) 
AstraZeneca

$$$$
CHEMBL2147221
     RDKit          2D

 33 35  0  0  0  0  0  0  0  0999 V2000
   -1.7439   -4.0254    0.0000 C   0  0  0  0  0  0  0  0  0  0  0  0
   -1.7380   -3.0254    0.0000 O   0  0  0  0  0  0  0  0  0  0  0  0
   -2.6010   -2.5203    0.0000 C   0  0  0  0  0  0  0  0  0  0  0  0
   -2.5921   -1.5152    0.0000 N   0  0  0  0  0  0  0  0  0  0  0  0
   -3.4641   -1.0152    0.0000 C   0  0  0  0  0  0  0  0  0  0  0  0
   -4.3361   -1.5152    0.0000 C   0  0  0  0  0  0  0  0  0  0  0  0
   -4.3361   -2.5152    0.0000 C   0  0  0  0  0  0  0  0  0  0  0  0
   -3.4730   -3.0203    0.0000 N   0  0  0  0  0  0  0  0  0  0  0  0
   -5.2014   -1.0139    0.0000 C   0  0  0  0  0  0  0  0  0  0  0  0
   -6.0712   -1.5178    0.0000 C   0  0  0  0  0  0  0  0  0  0  0  0
   -6.9365   -1.0165    0.0000 C   0  0  0  0  0  0  0  0  0  0  0  0
   -6.9408   -0.0165    0.0000 C   0  0  0  0  0  0  0  0  0  0  0  0
   -6.0710    0.4874    0.0000 C   0  0  0  0  0  0  0  0  0  0  0  0
   -6.0755    1.4874    0.0000 C   0  0  0  0  0  0  0  0  0  0  0  0
   -5.1969   -0.0088    0.0000 C   0  0  0  0  0  0  0  0  0  0  0  0
   -4.3316    0.4925    0.0000 C   0  0  0  0  0  0  0  0  0  0  0  0
   -3.4648   -0.0063    0.0000 C   0  0  0  0  0  0  0  0  0  0  0  0
   -2.5995    0.4950    0.0000 N   0  0  0  0  0  0  0  0  0  0  0  0
   -1.7328   -0.0038    0.0000 C   0  0  0  0  0  0  0  0  0  0  0  0
   -1.7313   -1.0038    0.0000 O   0  0  0  0  0  0  0  0  0  0  0  0
   -0.8675    0.4975    0.0000 C   0  0  0  0  0  0  0  0  0  0  0  0
    0.0000    0.0000    0.0000 C   0  0  0  0  0  0  0  0  0  0  0  0
    0.8675    0.4975    0.0000 C   0  0  0  0  0  0  0  0  0  0  0  0
    0.8675    1.5027    0.0000 C   0  0  0  0  0  0  0  0  0  0  0  0
    1.7350    2.0001    0.0000 O   0  0  0  0  0  0  0  0  0  0  0  0
    1.7379    3.0001    0.0000 C   0  0  0  0  0  0  0  0  0  0  0  0
    2.6054    3.4976    0.0000 C   0  0  0  0  0  0  0  0  0  0  0  0
    2.6084    4.4976    0.0000 C   0  0  0  0  0  0  0  0  0  0  0  0
    1.6084    4.5005    0.0000 F   0  0  0  0  0  0  0  0  0  0  0  0
    3.6084    4.4946    0.0000 F   0  0  0  0  0  0  0  0  0  0  0  0
    2.6113    5.4976    0.0000 F   0  0  0  0  0  0  0  0  0  0  0  0
    0.0000    2.0104    0.0000 N   0  0  0  0  0  0  0  0  0  0  0  0
   -0.8675    1.5027    0.0000 C   0  0  0  0  0  0  0  0  0  0  0  0
  1  2  1  0
  2  3  1  0
  3  8  2  0
  3  4  1  0
  4  5  2  0
  5  6  1  0
  6  7  2  0
  7  8  1  0
  6  9  1  0
  9 15  1  0
  9 10  2  0
 10 11  1  0
 11 12  2  0
 12 13  1  0
 13 14  1  0
 13 15  2  0
 15 16  1  0
 16 17  1  0
 17 18  1  0
 18 19  1  0
 19 20  2  0
 19 21  1  0
 21 33  1  0
 21 22  2  0
 22 23  1  0
 23 24  2  0
 24 25  1  0
 25 26  1  0
 26 27  1  0
 27 28  1  0
 28 29  1  0
 28 30  1  0
 28 31  1  0
 24 32  1  0
 32 33  2  0
M  END
>  <SMILES>  (464) 
COc1ncc(-c2cccc(C)c2CCNC(=O)c2ccc(OCCC(F)(F)F)nc2)cn1

>  <CollectionName>  (464) 
chembl

>  <LOG PLASMA PROTEIN BINDING (RAT) (% unbound)>  (464) 
0.745074791582

>  <Internal ID>  (464) 


>  <Source>  (464) 
AstraZeneca

$$$$
CHEMBL2151176
     RDKit          2D

 32 36  0  0  0  0  0  0  0  0999 V2000
   -5.1991    0.0078    0.0000 C   0  0  0  0  0  0  0  0  0  0  0  0
   -4.3353   -0.4960    0.0000 O   0  0  0  0  0  0  0  0  0  0  0  0
   -3.4670    0.0001    0.0000 C   0  0  0  0  0  0  0  0  0  0  0  0
   -2.6003   -0.5089    0.0000 C   0  0  0  0  0  0  0  0  0  0  0  0
   -1.7320   -0.0025    0.0000 C   0  0  0  0  0  0  0  0  0  0  0  0
   -0.8653   -0.5013    0.0000 N   0  0  0  0  0  0  0  0  0  0  0  0
    0.0000    0.0000    0.0000 C   0  0  0  0  0  0  0  0  0  0  0  0
    0.0000    1.0057    0.0000 N   0  0  0  0  0  0  0  0  0  0  0  0
    0.8680    1.5138    0.0000 C   0  0  0  0  0  0  0  0  0  0  0  0
    0.8676    2.5138    0.0000 C   0  0  0  0  0  0  0  0  0  0  0  0
    0.0014    3.0135    0.0000 O   0  0  0  0  0  0  0  0  0  0  0  0
    0.0011    4.0135    0.0000 C   0  0  0  0  0  0  0  0  0  0  0  0
   -0.8089    4.6027    0.0000 C   0  0  0  0  0  0  0  0  0  0  0  0
   -0.5010    5.5556    0.0000 C   0  0  0  0  0  0  0  0  0  0  0  0
    0.4990    5.5547    0.0000 C   0  0  0  0  0  0  0  0  0  0  0  0
    0.8129    4.6050    0.0000 C   0  0  0  0  0  0  0  0  0  0  0  0
    1.7374    1.0057    0.0000 C   0  0  0  0  0  0  0  0  0  0  0  0
    2.6052    1.5109    0.0000 C   0  0  0  0  0  0  0  0  0  0  0  0
    3.4774    1.0034    0.0000 O   0  0  0  0  0  0  0  0  0  0  0  0
    3.4761   -0.0036    0.0000 C   0  0  0  0  0  0  0  0  0  0  0  0
    2.6026   -0.5032    0.0000 C   0  0  0  0  0  0  0  0  0  0  0  0
    1.7360   -0.0012    0.0000 C   0  0  0  0  0  0  0  0  0  0  0  0
    0.8680   -0.4978    0.0000 N   0  0  0  0  0  0  0  0  0  0  0  0
   -1.7305    1.0027    0.0000 C   0  0  0  0  0  0  0  0  0  0  0  0
   -2.5973    1.5015    0.0000 C   0  0  0  0  0  0  0  0  0  0  0  0
   -3.4655    1.0053    0.0000 C   0  0  0  0  0  0  0  0  0  0  0  0
   -4.3301    1.5079    0.0000 N   0  0  0  0  0  0  0  0  0  0  0  0
   -4.4306    2.5045    0.0000 C   0  0  0  0  0  0  0  0  0  0  0  0
   -5.4129    2.7155    0.0000 N   0  0  0  0  0  0  0  0  0  0  0  0
   -5.9116    1.8482    0.0000 C   0  0  0  0  0  0  0  0  0  0  0  0
   -6.9062    1.7450    0.0000 C   0  0  0  0  0  0  0  0  0  0  0  0
   -5.2457    1.1021    0.0000 C   0  0  0  0  0  0  0  0  0  0  0  0
  1  2  1  0
  2  3  1  0
  3 26  2  0
  3  4  1  0
  4  5  2  0
  5  6  1  0
  6  7  1  0
  7 23  1  0
  7  8  2  0
  8  9  1  0
  9 10  1  0
 10 11  1  0
 11 12  1  0
 12 16  1  0
 12 13  1  0
 13 14  1  0
 14 15  1  0
 15 16  1  0
  9 17  2  0
 17 22  1  0
 17 18  1  0
 18 19  1  0
 19 20  1  0
 20 21  1  0
 21 22  1  0
 22 23  2  0
  5 24  1  0
 24 25  2  0
 25 26  1  0
 26 27  1  0
 27 32  1  0
 27 28  1  0
 28 29  2  0
 29 30  1  0
 30 31  1  0
 30 32  2  0
M  END
>  <SMILES>  (465) 
COc1cc(Nc2nc3c(c(COC4CCCC4)n2)COCC3)ccc1-n1cnc(C)c1

>  <CollectionName>  (465) 
chembl

>  <LOG PLASMA PROTEIN BINDING (RAT) (% unbound)>  (465) 
0.311753861056

>  <Internal ID>  (465) 


>  <Source>  (465) 
AstraZeneca

$$$$
CHEMBL2151324
     RDKit          2D

 30 33  0  0  1  0  0  0  0  0999 V2000
   -1.1568    5.8749    0.0000 C   0  0  0  0  0  0  0  0  0  0  0  0
   -0.1627    5.7661    0.0000 C   0  0  0  0  0  0  0  0  0  0  0  0
    0.4285    6.5726    0.0000 C   0  0  0  0  0  0  0  0  0  0  0  0
    0.2401    4.8509    0.0000 O   0  0  0  0  0  0  0  0  0  0  0  0
   -0.3511    4.0444    0.0000 C   0  0  0  0  0  0  0  0  0  0  0  0
   -0.0446    3.0909    0.0000 C   0  0  0  0  0  0  0  0  0  0  0  0
   -0.8570    2.5078    0.0000 C   0  0  0  0  0  0  0  0  0  0  0  0
   -0.8596    1.5078    0.0000 N   0  0  0  0  0  0  0  0  0  0  0  0
    0.0051    1.0055    0.0000 C   0  0  0  0  0  0  0  0  0  0  0  0
    0.8736    1.5067    0.0000 N   0  0  0  0  0  0  0  0  0  0  0  0
    1.7426    0.9968    0.0000 C   0  0  0  0  0  0  0  0  0  0  0  0
    1.7361   -0.0079    0.0000 C   0  0  0  0  0  0  0  0  0  0  0  0
    0.8635   -0.5043    0.0000 C   0  0  0  0  0  0  0  0  0  0  0  0
    0.0000    0.0000    0.0000 C   0  0  0  0  0  0  0  0  0  0  0  0
   -0.8685   -0.4956    0.0000 F   0  0  0  0  0  0  0  0  0  0  0  0
    2.6894   -0.3248    0.0000 N   0  0  0  0  0  0  0  0  0  0  0  0
    3.2854    0.4841    0.0000 C   0  0  0  0  0  0  0  0  0  0  0  0
    2.7001    1.3007    0.0000 N   0  0  0  0  0  0  0  0  0  0  0  0
    3.0154    2.2497    0.0000 C   0  0  0  0  0  0  0  0  0  0  0  0
    2.3512    2.9973    0.0000 C   0  0  0  0  0  0  0  0  0  0  0  0
    1.3717    2.7958    0.0000 O   0  0  0  0  0  0  0  0  0  0  0  0
    3.9949    2.4511    0.0000 C   0  0  0  0  0  0  0  0  0  0  0  0
    4.3091    3.4060    0.0000 C   0  0  0  0  0  0  0  0  0  0  0  0
    5.2886    3.6074    0.0000 C   0  0  0  0  0  0  0  0  0  0  0  0
    5.9572    2.8637    0.0000 C   0  0  0  0  0  0  0  0  0  0  0  0
    6.9358    3.0695    0.0000 F   0  0  0  0  0  0  0  0  0  0  0  0
    5.6430    1.9089    0.0000 C   0  0  0  0  0  0  0  0  0  0  0  0
    4.6603    1.6977    0.0000 N   0  0  0  0  0  0  0  0  0  0  0  0
   -1.6666    3.0955    0.0000 N   0  0  0  0  0  0  0  0  0  0  0  0
   -1.3528    4.0498    0.0000 N   0  0  0  0  0  0  0  0  0  0  0  0
  1  2  1  0
  2  3  1  0
  2  4  1  0
  4  5  1  0
  5 30  1  0
  5  6  2  0
  6  7  1  0
  7  8  1  0
  8  9  1  0
  9 14  1  0
  9 10  2  0
 10 11  1  0
 11 18  1  0
 11 12  2  0
 12 13  1  0
 13 14  2  0
 14 15  1  0
 12 16  1  0
 16 17  2  0
 17 18  1  0
 18 19  1  0
 19 20  1  1
 20 21  1  0
 19 22  1  0
 22 28  1  0
 22 23  2  0
 23 24  1  0
 24 25  2  0
 25 26  1  0
 25 27  1  0
 27 28  2  0
  7 29  2  0
 29 30  1  0
M  END
>  <SMILES>  (466) 
CC(C)Oc1cc(Nc2nc3c(cc2F)ncn3[C@@H](CO)c2ccc(F)cn2)n[nH]1

>  <CollectionName>  (466) 
chembl

>  <LOG PLASMA PROTEIN BINDING (RAT) (% unbound)>  (466) 
1.07518185462

>  <Internal ID>  (466) 


>  <Source>  (466) 
AstraZeneca

$$$$
CHEMBL2153581
     RDKit          2D

 33 36  0  0  0  0  0  0  0  0999 V2000
   15.1128    1.3354    0.0000 F   0  0  0  0  0  0  0  0  0  0  0  0
   14.1195    1.4512    0.0000 C   0  0  0  0  0  0  0  0  0  0  0  0
   13.5214    0.6498    0.0000 C   0  0  0  0  0  0  0  0  0  0  0  0
   12.5276    0.7613    0.0000 C   0  0  0  0  0  0  0  0  0  0  0  0
   12.1279    1.6836    0.0000 C   0  0  0  0  0  0  0  0  0  0  0  0
   12.7219    2.4944    0.0000 C   0  0  0  0  0  0  0  0  0  0  0  0
   13.7198    2.3735    0.0000 C   0  0  0  0  0  0  0  0  0  0  0  0
   14.3179    3.1749    0.0000 C   0  0  0  0  0  0  0  0  0  0  0  0
   13.5165    3.7730    0.0000 F   0  0  0  0  0  0  0  0  0  0  0  0
   15.1193    2.5767    0.0000 F   0  0  0  0  0  0  0  0  0  0  0  0
   14.9161    3.9763    0.0000 F   0  0  0  0  0  0  0  0  0  0  0  0
   11.1341    1.7950    0.0000 C   0  0  0  0  0  0  0  0  0  0  0  0
   10.4597    1.0546    0.0000 C   0  0  0  0  0  0  0  0  0  0  0  0
    9.5496    1.4691    0.0000 C   0  0  0  0  0  0  0  0  0  0  0  0
    8.6809    0.9737    0.0000 C   0  0  0  0  0  0  0  0  0  0  0  0
    7.8175    1.4783    0.0000 N   0  0  0  0  0  0  0  0  0  0  0  0
    6.9489    0.9829    0.0000 C   0  0  0  0  0  0  0  0  0  0  0  0
    6.9435   -0.0171    0.0000 O   0  0  0  0  0  0  0  0  0  0  0  0
    6.0855    1.4875    0.0000 C   0  0  0  0  0  0  0  0  0  0  0  0
    5.2168    0.9922    0.0000 C   0  0  0  0  0  0  0  0  0  0  0  0
    4.3535    1.4968    0.0000 C   0  0  0  0  0  0  0  0  0  0  0  0
    3.4848    1.0014    0.0000 C   0  0  0  0  0  0  0  0  0  0  0  0
    3.4805   -0.0073    0.0000 C   0  0  0  0  0  0  0  0  0  0  0  0
    2.6039   -0.5053    0.0000 C   0  0  0  0  0  0  0  0  0  0  0  0
    1.7371   -0.0000    0.0000 C   0  0  0  0  0  0  0  0  0  0  0  0
    0.8707   -0.4993    0.0000 C   0  0  0  0  0  0  0  0  0  0  0  0
    0.0000    0.0000    0.0000 C   0  0  0  0  0  0  0  0  0  0  0  0
    0.0000    1.0089    0.0000 C   0  0  0  0  0  0  0  0  0  0  0  0
    0.8707    1.5185    0.0000 N   0  0  0  0  0  0  0  0  0  0  0  0
    1.7414    1.0089    0.0000 C   0  0  0  0  0  0  0  0  0  0  0  0
    2.6125    1.5125    0.0000 N   0  0  0  0  0  0  0  0  0  0  0  0
    9.6564    2.4638    0.0000 O   0  0  0  0  0  0  0  0  0  0  0  0
   10.6403    2.6665    0.0000 N   0  0  0  0  0  0  0  0  0  0  0  0
  1  2  1  0
  2  7  2  0
  2  3  1  0
  3  4  2  0
  4  5  1  0
  5  6  2  0
  6  7  1  0
  7  8  1  0
  8  9  1  0
  8 10  1  0
  8 11  1  0
  5 12  1  0
 12 33  2  0
 12 13  1  0
 13 14  2  0
 14 15  1  0
 15 16  1  0
 16 17  1  0
 17 18  2  0
 17 19  1  0
 19 20  1  0
 20 21  1  0
 21 22  1  0
 22 31  1  0
 22 23  2  0
 23 24  1  0
 24 25  2  0
 25 30  1  0
 25 26  1  0
 26 27  2  0
 27 28  1  0
 28 29  2  0
 29 30  1  0
 30 31  2  0
 14 32  1  0
 32 33  1  0
M  END
>  <SMILES>  (467) 
O=C(CCCc1ccc2cccnc2n1)NCc1cc(-c2ccc(F)c(C(F)(F)F)c2)no1

>  <CollectionName>  (467) 
chembl

>  <LOG PLASMA PROTEIN BINDING (RAT) (% unbound)>  (467) 
0.0755469613925

>  <Internal ID>  (467) 


>  <Source>  (467) 
AstraZeneca

$$$$
CHEMBL2158785
     RDKit          2D

 36 39  0  0  1  0  0  0  0  0999 V2000
    1.7380   -4.0078    0.0000 C   0  0  0  0  0  0  0  0  0  0  0  0
    2.6033   -4.5091    0.0000 C   0  0  0  0  0  0  0  0  0  0  0  0
    2.5988   -5.5142    0.0000 C   0  0  0  0  0  0  0  0  0  0  0  0
    1.7335   -6.0155    0.0000 Cl  0  0  0  0  0  0  0  0  0  0  0  0
    3.4730   -6.0104    0.0000 C   0  0  0  0  0  0  0  0  0  0  0  0
    4.3428   -5.5065    0.0000 C   0  0  0  0  0  0  0  0  0  0  0  0
    4.3384   -4.5065    0.0000 C   0  0  0  0  0  0  0  0  0  0  0  0
    3.4731   -4.0052    0.0000 C   0  0  0  0  0  0  0  0  0  0  0  0
    3.4731   -3.0052    0.0000 O   0  0  0  0  0  0  0  0  0  0  0  0
    2.6071   -2.5052    0.0000 C   0  0  0  0  0  0  0  0  0  0  0  0
    1.7425   -3.0077    0.0000 C   0  0  0  0  0  0  0  0  0  0  0  0
    0.8720   -2.5051    0.0000 C   0  0  0  0  0  0  0  0  0  0  0  0
    0.8660   -1.5000    0.0000 N   0  0  0  0  0  0  0  0  0  0  0  0
    0.0000   -1.0000    0.0000 C   0  0  0  0  0  0  0  0  0  0  0  0
    0.0000    0.0000    0.0000 C   0  0  0  0  0  0  0  0  0  0  0  0
   -0.8675    0.4975    0.0000 C   0  0  0  0  0  0  0  0  0  0  0  0
   -0.8675    1.5027    0.0000 C   0  0  0  0  0  0  0  0  0  0  0  0
   -0.0000    2.0104    0.0000 N   0  0  0  0  0  0  0  0  0  0  0  0
    0.8675    1.5027    0.0000 C   0  0  0  0  0  0  0  0  0  0  0  0
    0.8675    0.4975    0.0000 C   0  0  0  0  0  0  0  0  0  0  0  0
   -0.0000    3.0104    0.0000 C   0  0  0  0  0  0  0  0  0  0  0  0
   -0.8660    3.5104    0.0000 C   0  0  0  0  0  0  0  0  0  0  0  0
   -0.8660    4.5104    0.0000 C   0  0  0  0  0  0  0  0  0  0  0  0
   -0.0007    5.0117    0.0000 C   0  0  0  0  0  0  0  0  0  0  0  0
    0.0037    6.0117    0.0000 C   0  0  0  0  0  0  0  0  0  0  0  0
   -0.8661    6.5156    0.0000 C   0  0  0  0  0  0  0  0  0  0  0  0
   -0.8617    7.5155    0.0000 F   0  0  0  0  0  0  0  0  0  0  0  0
   -1.7403    6.0194    0.0000 C   0  0  0  0  0  0  0  0  0  0  0  0
   -1.7358    5.0143    0.0000 C   0  0  0  0  0  0  0  0  0  0  0  0
    0.8660    3.5104    0.0000 C   0  0  0  0  0  0  0  0  0  0  0  0
    1.7321    3.0104    0.0000 O   0  0  0  0  0  0  0  0  0  0  0  0
    0.8660    4.5104    0.0000 O   0  0  0  0  0  0  0  0  0  0  0  0
    1.7395   -1.0026    0.0000 C   0  0  0  0  0  0  0  0  0  0  0  0
    2.6100   -1.5052    0.0000 C   0  0  0  0  0  0  0  0  0  0  0  0
    3.4774   -7.0103    0.0000 C   0  0  0  0  0  0  0  0  0  0  0  0
    3.4818   -8.0103    0.0000 N   0  0  0  0  0  0  0  0  0  0  0  0
  1  2  1  0
  2  8  2  0
  2  3  1  0
  3  4  1  0
  3  5  2  0
  5  6  1  0
  6  7  2  0
  7  8  1  0
  8  9  1  0
  9 10  1  0
 10 34  1  0
 10 11  1  0
 11 12  1  0
 12 13  1  0
 13 14  1  0
 14 15  1  0
 15 20  1  0
 15 16  1  0
 16 17  1  0
 17 18  1  0
 18 19  1  0
 19 20  1  0
 18 21  1  0
 21 22  1  1
 22 23  1  0
 23 29  1  0
 23 24  2  0
 24 25  1  0
 25 26  2  0
 26 27  1  0
 26 28  1  0
 28 29  2  0
 21 30  1  0
 30 31  2  0
 30 32  1  0
 13 33  1  0
 33 34  1  0
  5 35  1  0
 35 36  3  0
M  END
>  <SMILES>  (468) 
Cc1c(OC2CCN(CC3CCN([C@@H](Cc4ccc(F)cc4)C(=O)O)CC3)CC2)ccc(C#N)c1Cl

>  <CollectionName>  (468) 
chembl

>  <LOG PLASMA PROTEIN BINDING (RAT) (% unbound)>  (468) 
1.67851837904

>  <Internal ID>  (468) 


>  <Source>  (468) 
AstraZeneca

$$$$
CHEMBL2158835
     RDKit          2D

 33 36  0  0  1  0  0  0  0  0999 V2000
    0.8660    4.5104    0.0000 O   0  0  0  0  0  0  0  0  0  0  0  0
    0.8660    3.5104    0.0000 C   0  0  0  0  0  0  0  0  0  0  0  0
    1.7321    3.0104    0.0000 O   0  0  0  0  0  0  0  0  0  0  0  0
   -0.0000    3.0104    0.0000 C   0  0  0  0  0  0  0  0  0  0  0  0
   -0.8660    3.5104    0.0000 C   0  0  0  0  0  0  0  0  0  0  0  0
   -0.8660    4.5104    0.0000 C   0  0  0  0  0  0  0  0  0  0  0  0
   -1.7380    5.0104    0.0000 C   0  0  0  0  0  0  0  0  0  0  0  0
   -1.7381    6.0105    0.0000 C   0  0  0  0  0  0  0  0  0  0  0  0
   -0.8750    6.5155    0.0000 C   0  0  0  0  0  0  0  0  0  0  0  0
   -0.0030    6.0155    0.0000 C   0  0  0  0  0  0  0  0  0  0  0  0
    0.0059    5.0104    0.0000 C   0  0  0  0  0  0  0  0  0  0  0  0
   -0.0000    2.0104    0.0000 N   0  0  0  0  0  0  0  0  0  0  0  0
   -0.8675    1.5027    0.0000 C   0  0  0  0  0  0  0  0  0  0  0  0
   -0.8675    0.4975    0.0000 C   0  0  0  0  0  0  0  0  0  0  0  0
    0.0000    0.0000    0.0000 C   0  0  0  0  0  0  0  0  0  0  0  0
    0.0000   -1.0000    0.0000 C   0  0  0  0  0  0  0  0  0  0  0  0
    0.8660   -1.5000    0.0000 N   0  0  0  0  0  0  0  0  0  0  0  0
    0.8720   -2.5051    0.0000 C   0  0  0  0  0  0  0  0  0  0  0  0
    1.7425   -3.0077    0.0000 C   0  0  0  0  0  0  0  0  0  0  0  0
    2.6071   -2.5052    0.0000 C   0  0  0  0  0  0  0  0  0  0  0  0
    2.6100   -1.5052    0.0000 C   0  0  0  0  0  0  0  0  0  0  0  0
    1.7395   -1.0026    0.0000 C   0  0  0  0  0  0  0  0  0  0  0  0
    3.4731   -3.0052    0.0000 O   0  0  0  0  0  0  0  0  0  0  0  0
    3.4731   -4.0052    0.0000 C   0  0  0  0  0  0  0  0  0  0  0  0
    2.6011   -4.5052    0.0000 C   0  0  0  0  0  0  0  0  0  0  0  0
    2.6011   -5.5053    0.0000 C   0  0  0  0  0  0  0  0  0  0  0  0
    3.4642   -6.0103    0.0000 C   0  0  0  0  0  0  0  0  0  0  0  0
    3.4598   -7.0103    0.0000 Cl  0  0  0  0  0  0  0  0  0  0  0  0
    4.3362   -5.5103    0.0000 C   0  0  0  0  0  0  0  0  0  0  0  0
    5.1992   -6.0154    0.0000 Cl  0  0  0  0  0  0  0  0  0  0  0  0
    4.3451   -4.5052    0.0000 C   0  0  0  0  0  0  0  0  0  0  0  0
    0.8675    0.4975    0.0000 C   0  0  0  0  0  0  0  0  0  0  0  0
    0.8675    1.5027    0.0000 C   0  0  0  0  0  0  0  0  0  0  0  0
  1  2  1  0
  2  3  2  0
  4  2  1  0
  4  5  1  1
  5  6  1  0
  6 11  1  0
  6  7  2  0
  7  8  1  0
  8  9  2  0
  9 10  1  0
 10 11  2  0
  4 12  1  0
 12 33  1  0
 12 13  1  0
 13 14  1  0
 14 15  1  0
 15 16  1  0
 16 17  1  0
 17 22  1  0
 17 18  1  0
 18 19  1  0
 19 20  1  0
 20 21  1  0
 21 22  1  0
 20 23  1  0
 23 24  1  0
 24 31  1  0
 24 25  2  0
 25 26  1  0
 26 27  2  0
 27 28  1  0
 27 29  1  0
 29 30  1  0
 29 31  2  0
 15 32  1  0
 32 33  1  0
M  END
>  <SMILES>  (469) 
O=C(O)[C@H](Cc1ccccc1)N1CCC(CN2CCC(Oc3ccc(Cl)c(Cl)c3)CC2)CC1

>  <CollectionName>  (469) 
chembl

>  <LOG PLASMA PROTEIN BINDING (RAT) (% unbound)>  (469) 
1.26221370548

>  <Internal ID>  (469) 


>  <Source>  (469) 
AstraZeneca

$$$$
CHEMBL2164567
     RDKit          2D

 27 29  0  0  0  0  0  0  0  0999 V2000
    3.2876   -1.2187    0.0000 C   0  0  0  0  0  0  0  0  0  0  0  0
    4.2876   -1.2132    0.0000 C   0  0  0  0  0  0  0  0  0  0  0  0
    4.7828   -0.3444    0.0000 N   0  0  0  0  0  0  0  0  0  0  0  0
    5.7828   -0.3388    0.0000 C   0  0  0  0  0  0  0  0  0  0  0  0
    6.2780    0.5300    0.0000 C   0  0  0  0  0  0  0  0  0  0  0  0
    7.2779    0.5356    0.0000 O   0  0  0  0  0  0  0  0  0  0  0  0
    4.2780    0.5189    0.0000 C   0  0  0  0  0  0  0  0  0  0  0  0
    4.7732    1.3877    0.0000 O   0  0  0  0  0  0  0  0  0  0  0  0
    3.2780    0.5133    0.0000 C   0  0  0  0  0  0  0  0  0  0  0  0
    2.6940   -0.2997    0.0000 C   0  0  0  0  0  0  0  0  0  0  0  0
    1.7405    0.0044    0.0000 C   0  0  0  0  0  0  0  0  0  0  0  0
    0.8675   -0.4975    0.0000 C   0  0  0  0  0  0  0  0  0  0  0  0
    0.0000    0.0000    0.0000 C   0  0  0  0  0  0  0  0  0  0  0  0
   -0.0000    1.0052    0.0000 C   0  0  0  0  0  0  0  0  0  0  0  0
    0.8675    1.5129    0.0000 N   0  0  0  0  0  0  0  0  0  0  0  0
    1.7350    1.0052    0.0000 C   0  0  0  0  0  0  0  0  0  0  0  0
    2.6851    1.3196    0.0000 N   0  0  0  0  0  0  0  0  0  0  0  0
    2.9888    2.2724    0.0000 C   0  0  0  0  0  0  0  0  0  0  0  0
    2.3099    3.0136    0.0000 C   0  0  0  0  0  0  0  0  0  0  0  0
    2.6135    3.9664    0.0000 C   0  0  0  0  0  0  0  0  0  0  0  0
    3.5893    4.1855    0.0000 C   0  0  0  0  0  0  0  0  0  0  0  0
    4.2682    3.4443    0.0000 C   0  0  0  0  0  0  0  0  0  0  0  0
    3.9714    2.4839    0.0000 C   0  0  0  0  0  0  0  0  0  0  0  0
    5.2439    3.6634    0.0000 C   0  0  0  0  0  0  0  0  0  0  0  0
    5.0248    4.6391    0.0000 F   0  0  0  0  0  0  0  0  0  0  0  0
    5.4630    2.6877    0.0000 F   0  0  0  0  0  0  0  0  0  0  0  0
    6.2196    3.8825    0.0000 F   0  0  0  0  0  0  0  0  0  0  0  0
  1  2  1  0
  2  3  1  0
  3  4  1  0
  4  5  1  0
  5  6  1  0
  3  7  1  0
  7  8  2  0
  7  9  1  0
  9 17  1  0
  9 10  2  0
 10 11  1  0
 11 16  2  0
 11 12  1  0
 12 13  2  0
 13 14  1  0
 14 15  2  0
 15 16  1  0
 16 17  1  0
 17 18  1  0
 18 23  1  0
 18 19  2  0
 19 20  1  0
 20 21  2  0
 21 22  1  0
 22 23  2  0
 22 24  1  0
 24 25  1  0
 24 26  1  0
 24 27  1  0
M  END
>  <SMILES>  (470) 
CCN(CCO)C(=O)c1cc2cccnc2n1-c1cccc(C(F)(F)F)c1

>  <CollectionName>  (470) 
chembl

>  <LOG PLASMA PROTEIN BINDING (RAT) (% unbound)>  (470) 
1.39585037602

>  <Internal ID>  (470) 


>  <Source>  (470) 
AstraZeneca

$$$$
CHEMBL2178934
     RDKit          2D

 24 26  0  0  1  0  0  0  0  0999 V2000
    2.6054    2.5026    0.0000 N   0  0  0  0  0  0  0  0  0  0  0  0
    2.6025    1.5026    0.0000 C   0  0  0  0  0  0  0  0  0  0  0  0
    3.4670    1.0001    0.0000 O   0  0  0  0  0  0  0  0  0  0  0  0
    1.7350    1.0052    0.0000 C   0  0  0  0  0  0  0  0  0  0  0  0
    1.7350    0.0000    0.0000 C   0  0  0  0  0  0  0  0  0  0  0  0
    0.8675   -0.4975    0.0000 N   0  0  0  0  0  0  0  0  0  0  0  0
    0.0000    0.0000    0.0000 C   0  0  0  0  0  0  0  0  0  0  0  0
    0.0000    1.0052    0.0000 C   0  0  0  0  0  0  0  0  0  0  0  0
    0.8675    1.5129    0.0000 N   0  0  0  0  0  0  0  0  0  0  0  0
   -0.8675    1.5026    0.0000 C   0  0  0  0  0  0  0  0  0  0  0  0
   -0.8719    2.5027    0.0000 C   0  0  0  0  0  0  0  0  0  0  0  0
   -1.7372    3.0039    0.0000 C   0  0  0  0  0  0  0  0  0  0  0  0
   -2.6070    2.5000    0.0000 C   0  0  0  0  0  0  0  0  0  0  0  0
   -2.6114    1.4949    0.0000 C   0  0  0  0  0  0  0  0  0  0  0  0
   -1.7373    0.9987    0.0000 C   0  0  0  0  0  0  0  0  0  0  0  0
   -3.4723    3.0012    0.0000 C   0  0  0  0  0  0  0  0  0  0  0  0
   -4.3421    2.4973    0.0000 C   0  0  0  0  0  0  0  0  0  0  0  0
   -5.2074    2.9986    0.0000 C   0  0  0  0  0  0  0  0  0  0  0  0
   -5.2118    3.9986    0.0000 C   0  0  0  0  0  0  0  0  0  0  0  0
   -6.0793    4.4960    0.0000 C   0  0  0  0  0  0  0  0  0  0  0  0
   -6.0823    5.4960    0.0000 C   0  0  0  0  0  0  0  0  0  0  0  0
   -6.9498    5.9935    0.0000 O   0  0  0  0  0  0  0  0  0  0  0  0
   -4.3421    4.5025    0.0000 C   0  0  0  0  0  0  0  0  0  0  0  0
   -3.4679    4.0064    0.0000 C   0  0  0  0  0  0  0  0  0  0  0  0
  1  2  1  0
  2  3  2  0
  2  4  1  0
  4  9  2  0
  4  5  1  0
  5  6  2  0
  6  7  1  0
  7  8  2  0
  8  9  1  0
  8 10  1  0
 10 15  1  0
 10 11  2  0
 11 12  1  0
 12 13  2  0
 13 14  1  0
 14 15  2  0
 16 13  1  6
 16 24  1  0
 16 17  1  0
 17 18  1  0
 18 19  1  0
 19 20  1  1
 20 21  1  0
 21 22  1  0
 19 23  1  0
 23 24  1  0
M  END
>  <SMILES>  (471) 
NC(=O)c1cncc(-c2ccc([C@H]3CC[C@H](CCO)CC3)cc2)n1

>  <CollectionName>  (471) 
chembl

>  <LOG PLASMA PROTEIN BINDING (RAT) (% unbound)>  (471) 
0.113943352307

>  <Internal ID>  (471) 


>  <Source>  (471) 
AstraZeneca

$$$$
CHEMBL2178935
     RDKit          2D

 27 29  0  0  1  0  0  0  0  0999 V2000
    2.6003   -0.5013    0.0000 C   0  0  0  0  0  0  0  0  0  0  0  0
    1.7350    0.0000    0.0000 C   0  0  0  0  0  0  0  0  0  0  0  0
    0.8675   -0.4975    0.0000 N   0  0  0  0  0  0  0  0  0  0  0  0
    0.0000    0.0000    0.0000 C   0  0  0  0  0  0  0  0  0  0  0  0
   -0.8653   -0.5013    0.0000 C   0  0  0  0  0  0  0  0  0  0  0  0
    0.0000    1.0052    0.0000 C   0  0  0  0  0  0  0  0  0  0  0  0
    0.8675    1.5129    0.0000 N   0  0  0  0  0  0  0  0  0  0  0  0
    1.7350    1.0052    0.0000 C   0  0  0  0  0  0  0  0  0  0  0  0
    2.6025    1.5026    0.0000 C   0  0  0  0  0  0  0  0  0  0  0  0
    3.4670    1.0001    0.0000 O   0  0  0  0  0  0  0  0  0  0  0  0
    2.6054    2.5026    0.0000 N   0  0  0  0  0  0  0  0  0  0  0  0
   -0.8675    1.5026    0.0000 C   0  0  0  0  0  0  0  0  0  0  0  0
   -0.8719    2.5027    0.0000 C   0  0  0  0  0  0  0  0  0  0  0  0
   -1.7372    3.0039    0.0000 C   0  0  0  0  0  0  0  0  0  0  0  0
   -2.6070    2.5000    0.0000 C   0  0  0  0  0  0  0  0  0  0  0  0
   -2.6114    1.4949    0.0000 C   0  0  0  0  0  0  0  0  0  0  0  0
   -1.7373    0.9987    0.0000 C   0  0  0  0  0  0  0  0  0  0  0  0
   -3.4723    3.0012    0.0000 C   0  0  0  0  0  0  0  0  0  0  0  0
   -4.3421    2.4973    0.0000 C   0  0  0  0  0  0  0  0  0  0  0  0
   -5.2074    2.9986    0.0000 C   0  0  0  0  0  0  0  0  0  0  0  0
   -5.2118    3.9986    0.0000 C   0  0  0  0  0  0  0  0  0  0  0  0
   -6.0793    4.4960    0.0000 C   0  0  0  0  0  0  0  0  0  0  0  0
   -6.9439    3.9935    0.0000 C   0  0  0  0  0  0  0  0  0  0  0  0
   -6.9409    2.9935    0.0000 O   0  0  0  0  0  0  0  0  0  0  0  0
   -7.8114    4.4909    0.0000 N   0  0  0  0  0  0  0  0  0  0  0  0
   -4.3421    4.5025    0.0000 C   0  0  0  0  0  0  0  0  0  0  0  0
   -3.4679    4.0064    0.0000 C   0  0  0  0  0  0  0  0  0  0  0  0
  1  2  1  0
  2  8  2  0
  2  3  1  0
  3  4  2  0
  4  5  1  0
  4  6  1  0
  6  7  2  0
  7  8  1  0
  8  9  1  0
  9 10  2  0
  9 11  1  0
  6 12  1  0
 12 17  1  0
 12 13  2  0
 13 14  1  0
 14 15  2  0
 15 16  1  0
 16 17  2  0
 18 15  1  6
 18 27  1  0
 18 19  1  0
 19 20  1  0
 20 21  1  0
 21 22  1  1
 22 23  1  0
 23 24  2  0
 23 25  1  0
 21 26  1  0
 26 27  1  0
M  END
>  <SMILES>  (472) 
Cc1nc(C)c(-c2ccc([C@H]3CC[C@H](CC(N)=O)CC3)cc2)nc1C(N)=O

>  <CollectionName>  (472) 
chembl

>  <LOG PLASMA PROTEIN BINDING (RAT) (% unbound)>  (472) 
0.745074791582

>  <Internal ID>  (472) 


>  <Source>  (472) 
AstraZeneca

$$$$
CHEMBL2179269
     RDKit          2D

 34 37  0  0  1  0  0  0  0  0999 V2000
    2.6056    5.5232    0.0000 C   0  0  0  0  0  0  0  0  0  0  0  0
    2.6071    4.5232    0.0000 C   0  0  0  0  0  0  0  0  0  0  0  0
    1.7418    4.0219    0.0000 N   0  0  0  0  0  0  0  0  0  0  0  0
    0.8676    4.5181    0.0000 C   0  0  0  0  0  0  0  0  0  0  0  0
   -0.0022    4.0142    0.0000 C   0  0  0  0  0  0  0  0  0  0  0  0
    0.0022    3.0142    0.0000 C   0  0  0  0  0  0  0  0  0  0  0  0
    0.8675    2.5129    0.0000 C   0  0  0  0  0  0  0  0  0  0  0  0
    1.7373    3.0168    0.0000 C   0  0  0  0  0  0  0  0  0  0  0  0
    0.8675    1.5129    0.0000 N   0  0  0  0  0  0  0  0  0  0  0  0
    0.0000    1.0052    0.0000 C   0  0  0  0  0  0  0  0  0  0  0  0
    0.0000    0.0000    0.0000 C   0  0  0  0  0  0  0  0  0  0  0  0
   -0.8653   -0.5013    0.0000 C   0  0  0  0  0  0  0  0  0  0  0  0
    0.8675   -0.4975    0.0000 C   0  0  0  0  0  0  0  0  0  0  0  0
    0.8675   -1.4975    0.0000 O   0  0  0  0  0  0  0  0  0  0  0  0
    1.7350    0.0000    0.0000 N   0  0  0  0  0  0  0  0  0  0  0  0
    1.7350    1.0052    0.0000 C   0  0  0  0  0  0  0  0  0  0  0  0
    2.6025    1.5026    0.0000 O   0  0  0  0  0  0  0  0  0  0  0  0
    3.4738    4.0244    0.0000 C   0  0  0  0  0  0  0  0  0  0  0  0
    3.4723    3.0192    0.0000 C   0  0  0  0  0  0  0  0  0  0  0  0
    4.3391    2.5204    0.0000 C   0  0  0  0  0  0  0  0  0  0  0  0
    5.2073    3.0166    0.0000 C   0  0  0  0  0  0  0  0  0  0  0  0
    6.0719    2.5141    0.0000 C   0  0  0  0  0  0  0  0  0  0  0  0
    6.0689    1.5141    0.0000 O   0  0  0  0  0  0  0  0  0  0  0  0
    6.9394    3.0115    0.0000 O   0  0  0  0  0  0  0  0  0  0  0  0
    5.2088    4.0218    0.0000 C   0  0  0  0  0  0  0  0  0  0  0  0
    6.0771    4.5180    0.0000 O   0  0  0  0  0  0  0  0  0  0  0  0
    6.0815    5.5179    0.0000 C   0  0  0  0  0  0  0  0  0  0  0  0
    5.2117    6.0218    0.0000 C   0  0  0  0  0  0  0  0  0  0  0  0
    5.2161    7.0219    0.0000 C   0  0  0  0  0  0  0  0  0  0  0  0
    6.0815    7.5231    0.0000 C   0  0  0  0  0  0  0  0  0  0  0  0
    6.9513    7.0192    0.0000 C   0  0  0  0  0  0  0  0  0  0  0  0
    7.8166    7.5204    0.0000 Cl  0  0  0  0  0  0  0  0  0  0  0  0
    6.9557    6.0141    0.0000 C   0  0  0  0  0  0  0  0  0  0  0  0
    4.3421    4.5308    0.0000 C   0  0  0  0  0  0  0  0  0  0  0  0
  2  1  1  6
  2  3  1  0
  3  8  1  0
  3  4  1  0
  4  5  1  0
  5  6  1  0
  6  7  1  0
  7  8  1  0
  7  9  1  1
  9 16  1  0
  9 10  1  0
 10 11  2  0
 11 12  1  0
 11 13  1  0
 13 14  2  0
 13 15  1  0
 15 16  1  0
 16 17  2  0
  2 18  1  0
 18 34  1  0
 18 19  2  0
 19 20  1  0
 20 21  2  0
 21 22  1  0
 22 23  2  0
 22 24  1  0
 21 25  1  0
 25 26  1  0
 26 27  1  0
 27 33  1  0
 27 28  2  0
 28 29  1  0
 29 30  2  0
 30 31  1  0
 31 32  1  0
 31 33  2  0
 25 34  2  0
M  END
>  <SMILES>  (473) 
Cc1cn([C@H]2CCCN([C@H](C)c3ccc(C(=O)O)c(Oc4cccc(Cl)c4)c3)C2)c(=O)[nH]c1=O

>  <CollectionName>  (473) 
chembl

>  <LOG PLASMA PROTEIN BINDING (RAT) (% unbound)>  (473) 
0.466867620354

>  <Internal ID>  (473) 


>  <Source>  (473) 
AstraZeneca

$$$$
CHEMBL2179270
     RDKit          2D

 34 37  0  0  1  0  0  0  0  0999 V2000
    2.6056    5.5232    0.0000 C   0  0  0  0  0  0  0  0  0  0  0  0
    2.6071    4.5232    0.0000 C   0  0  0  0  0  0  0  0  0  0  0  0
    1.7418    4.0219    0.0000 N   0  0  0  0  0  0  0  0  0  0  0  0
    0.8676    4.5181    0.0000 C   0  0  0  0  0  0  0  0  0  0  0  0
   -0.0022    4.0142    0.0000 C   0  0  0  0  0  0  0  0  0  0  0  0
    0.0022    3.0142    0.0000 C   0  0  0  0  0  0  0  0  0  0  0  0
    0.8675    2.5129    0.0000 C   0  0  0  0  0  0  0  0  0  0  0  0
    1.7373    3.0168    0.0000 C   0  0  0  0  0  0  0  0  0  0  0  0
    0.8675    1.5129    0.0000 N   0  0  0  0  0  0  0  0  0  0  0  0
    0.0000    1.0052    0.0000 C   0  0  0  0  0  0  0  0  0  0  0  0
    0.0000    0.0000    0.0000 C   0  0  0  0  0  0  0  0  0  0  0  0
   -0.8653   -0.5013    0.0000 C   0  0  0  0  0  0  0  0  0  0  0  0
    0.8675   -0.4975    0.0000 C   0  0  0  0  0  0  0  0  0  0  0  0
    0.8675   -1.4975    0.0000 O   0  0  0  0  0  0  0  0  0  0  0  0
    1.7350    0.0000    0.0000 N   0  0  0  0  0  0  0  0  0  0  0  0
    1.7350    1.0052    0.0000 C   0  0  0  0  0  0  0  0  0  0  0  0
    2.6025    1.5026    0.0000 O   0  0  0  0  0  0  0  0  0  0  0  0
    3.4738    4.0244    0.0000 C   0  0  0  0  0  0  0  0  0  0  0  0
    3.4723    3.0192    0.0000 C   0  0  0  0  0  0  0  0  0  0  0  0
    4.3391    2.5204    0.0000 C   0  0  0  0  0  0  0  0  0  0  0  0
    5.2073    3.0166    0.0000 C   0  0  0  0  0  0  0  0  0  0  0  0
    6.0719    2.5141    0.0000 C   0  0  0  0  0  0  0  0  0  0  0  0
    6.0689    1.5141    0.0000 O   0  0  0  0  0  0  0  0  0  0  0  0
    6.9394    3.0115    0.0000 O   0  0  0  0  0  0  0  0  0  0  0  0
    5.2088    4.0218    0.0000 C   0  0  0  0  0  0  0  0  0  0  0  0
    6.0771    4.5180    0.0000 O   0  0  0  0  0  0  0  0  0  0  0  0
    6.0815    5.5179    0.0000 C   0  0  0  0  0  0  0  0  0  0  0  0
    5.2117    6.0218    0.0000 C   0  0  0  0  0  0  0  0  0  0  0  0
    5.2161    7.0219    0.0000 C   0  0  0  0  0  0  0  0  0  0  0  0
    6.0815    7.5231    0.0000 C   0  0  0  0  0  0  0  0  0  0  0  0
    6.9513    7.0192    0.0000 C   0  0  0  0  0  0  0  0  0  0  0  0
    7.8166    7.5204    0.0000 Cl  0  0  0  0  0  0  0  0  0  0  0  0
    6.9557    6.0141    0.0000 C   0  0  0  0  0  0  0  0  0  0  0  0
    4.3421    4.5308    0.0000 C   0  0  0  0  0  0  0  0  0  0  0  0
  2  1  1  1
  2  3  1  0
  3  8  1  0
  3  4  1  0
  4  5  1  0
  5  6  1  0
  6  7  1  0
  7  8  1  0
  7  9  1  1
  9 16  1  0
  9 10  1  0
 10 11  2  0
 11 12  1  0
 11 13  1  0
 13 14  2  0
 13 15  1  0
 15 16  1  0
 16 17  2  0
  2 18  1  0
 18 34  1  0
 18 19  2  0
 19 20  1  0
 20 21  2  0
 21 22  1  0
 22 23  2  0
 22 24  1  0
 21 25  1  0
 25 26  1  0
 26 27  1  0
 27 33  1  0
 27 28  2  0
 28 29  1  0
 29 30  2  0
 30 31  1  0
 31 32  1  0
 31 33  2  0
 25 34  2  0
M  END
>  <SMILES>  (474) 
Cc1cn([C@H]2CCCN([C@@H](C)c3ccc(C(=O)O)c(Oc4cccc(Cl)c4)c3)C2)c(=O)[nH]c1=O

>  <CollectionName>  (474) 
chembl

>  <LOG PLASMA PROTEIN BINDING (RAT) (% unbound)>  (474) 
0.428134794029

>  <Internal ID>  (474) 


>  <Source>  (474) 
AstraZeneca

$$$$
CHEMBL2180037
     RDKit          2D

 25 28  0  0  1  0  0  0  0  0999 V2000
   -3.4634   -1.0063    0.0000 C   0  0  0  0  0  0  0  0  0  0  0  0
   -2.5981   -0.5050    0.0000 C   0  0  0  0  0  0  0  0  0  0  0  0
   -1.7328   -0.0038    0.0000 C   0  0  0  0  0  0  0  0  0  0  0  0
   -0.8675    0.4975    0.0000 C   0  0  0  0  0  0  0  0  0  0  0  0
   -0.8675    1.5027    0.0000 C   0  0  0  0  0  0  0  0  0  0  0  0
   -0.0000    2.0104    0.0000 N   0  0  0  0  0  0  0  0  0  0  0  0
    0.8675    1.5027    0.0000 C   0  0  0  0  0  0  0  0  0  0  0  0
    0.8675    0.4975    0.0000 C   0  0  0  0  0  0  0  0  0  0  0  0
    0.0000    0.0000    0.0000 C   0  0  0  0  0  0  0  0  0  0  0  0
    1.7328   -0.0038    0.0000 C   0  0  0  0  0  0  0  0  0  0  0  0
    1.7284   -1.0089    0.0000 C   0  0  0  0  0  0  0  0  0  0  0  0
    2.5937   -1.5103    0.0000 C   0  0  0  0  0  0  0  0  0  0  0  0
    3.4634   -1.0166    0.0000 C   0  0  0  0  0  0  0  0  0  0  0  0
    3.4678   -0.0114    0.0000 C   0  0  0  0  0  0  0  0  0  0  0  0
    2.6025    0.5001    0.0000 C   0  0  0  0  0  0  0  0  0  0  0  0
    4.3375    0.4822    0.0000 C   0  0  0  0  0  0  0  0  0  0  0  0
    5.0876    1.1460    0.0000 N   0  0  0  0  0  0  0  0  0  0  0  0
    5.9518    0.6399    0.0000 C   0  0  0  0  0  0  0  0  0  0  0  0
    6.8684    1.0397    0.0000 C   0  0  0  0  0  0  0  0  0  0  0  0
    5.7352   -0.3364    0.0000 C   0  0  0  0  0  0  0  0  0  0  0  0
    4.7399   -0.4383    0.0000 N   0  0  0  0  0  0  0  0  0  0  0  0
    6.4000   -1.0834    0.0000 N   0  0  0  0  0  0  0  0  0  0  0  0
    3.7562    1.2959    0.0000 C   0  0  0  0  0  0  0  0  0  0  0  0
    3.6583    2.2930    0.0000 C   0  0  0  0  0  0  0  0  0  0  0  0
    2.8446    1.7117    0.0000 C   0  0  0  0  0  0  0  0  0  0  0  0
  1  2  1  0
  2  3  3  0
  3  4  1  0
  4  9  2  0
  4  5  1  0
  5  6  2  0
  6  7  1  0
  7  8  2  0
  8  9  1  0
  8 10  1  0
 10 15  1  0
 10 11  2  0
 11 12  1  0
 12 13  2  0
 13 14  1  0
 14 15  2  0
 14 16  1  0
 16 21  1  0
 16 17  1  0
 17 18  2  0
 18 19  1  0
 18 20  1  0
 20 21  2  0
 20 22  1  0
 16 23  1  0
 23 25  1  0
 23 24  1  0
 24 25  1  0
M  END
>  <SMILES>  (475) 
CC#Cc1cncc(-c2cccc(C3(C4CC4)N=C(C)C(N)=N3)c2)c1

>  <CollectionName>  (475) 
chembl

>  <LOG PLASMA PROTEIN BINDING (RAT) (% unbound)>  (475) 
0.801403710017

>  <Internal ID>  (475) 


>  <Source>  (475) 
AstraZeneca

$$$$
CHEMBL1027
     RDKit          2D

 25 27  0  0  1  0  0  0  0  0999 V2000
   -0.0287    6.2907    0.0000 C   0  0  0  0  0  0  0  0  0  0  0  0
    0.9222    6.5999    0.0000 C   0  0  0  0  0  0  0  0  0  0  0  0
    1.2304    7.5529    0.0000 C   0  0  0  0  0  0  0  0  0  0  0  0
    2.2304    7.5516    0.0000 C   0  0  0  0  0  0  0  0  0  0  0  0
    2.5443    6.6017    0.0000 S   0  0  0  0  0  0  0  0  0  0  0  0
    1.7321    6.0104    0.0000 C   0  0  0  0  0  0  0  0  0  0  0  0
    1.7321    5.0104    0.0000 C   0  0  0  0  0  0  0  0  0  0  0  0
    0.8660    4.5104    0.0000 C   0  0  0  0  0  0  0  0  0  0  0  0
    0.8660    3.5104    0.0000 C   0  0  0  0  0  0  0  0  0  0  0  0
   -0.0000    3.0104    0.0000 C   0  0  0  0  0  0  0  0  0  0  0  0
   -0.0000    2.0104    0.0000 N   0  0  0  0  0  0  0  0  0  0  0  0
   -0.8675    1.5027    0.0000 C   0  0  0  0  0  0  0  0  0  0  0  0
   -0.8675    0.4975    0.0000 C   0  0  0  0  0  0  0  0  0  0  0  0
    0.0000    0.0000    0.0000 C   0  0  0  0  0  0  0  0  0  0  0  0
    0.8675    0.4975    0.0000 C   0  0  0  0  0  0  0  0  0  0  0  0
    0.8675    1.5027    0.0000 C   0  0  0  0  0  0  0  0  0  0  0  0
    1.7328   -0.0038    0.0000 C   0  0  0  0  0  0  0  0  0  0  0  0
    1.7313   -1.0038    0.0000 O   0  0  0  0  0  0  0  0  0  0  0  0
    2.5995    0.4950    0.0000 O   0  0  0  0  0  0  0  0  0  0  0  0
    2.5981    4.5104    0.0000 C   0  0  0  0  0  0  0  0  0  0  0  0
    2.7040    3.5114    0.0000 S   0  0  0  0  0  0  0  0  0  0  0  0
    3.6836    3.3082    0.0000 C   0  0  0  0  0  0  0  0  0  0  0  0
    4.1847    4.1736    0.0000 C   0  0  0  0  0  0  0  0  0  0  0  0
    3.5135    4.9169    0.0000 C   0  0  0  0  0  0  0  0  0  0  0  0
    3.7212    5.8951    0.0000 C   0  0  0  0  0  0  0  0  0  0  0  0
  1  2  1  0
  2  6  2  0
  2  3  1  0
  3  4  2  0
  4  5  1  0
  5  6  1  0
  6  7  1  0
  7  8  2  0
  8  9  1  0
  9 10  1  0
 10 11  1  0
 11 16  1  0
 11 12  1  0
 12 13  1  0
 13 14  1  0
 14 15  1  0
 15 16  1  0
 15 17  1  6
 17 18  2  0
 17 19  1  0
  7 20  1  0
 20 24  2  0
 20 21  1  0
 21 22  1  0
 22 23  2  0
 23 24  1  0
 24 25  1  0
M  END
>  <SMILES>  (476) 
Cc1ccsc1C(=CCCN1CCC[C@@H](C(=O)O)C1)c1sccc1C

>  <CollectionName>  (476) 
chembl

>  <LOG PLASMA PROTEIN BINDING (RAT) (% unbound)>  (476) 
0.922206277439

>  <Internal ID>  (476) 


>  <Source>  (476) 
AstraZeneca

$$$$
CHEMBL1461208
     RDKit          2D

 30 32  0  0  1  0  0  0  0  0999 V2000
    1.7180    7.0218    0.0000 C   0  0  0  0  0  0  0  0  0  0  0  0
    0.8542    6.5180    0.0000 O   0  0  0  0  0  0  0  0  0  0  0  0
    0.8586    5.5180    0.0000 C   0  0  0  0  0  0  0  0  0  0  0  0
   -0.0046    5.0130    0.0000 C   0  0  0  0  0  0  0  0  0  0  0  0
   -0.0045    4.0129    0.0000 C   0  0  0  0  0  0  0  0  0  0  0  0
    0.8675    3.5129    0.0000 C   0  0  0  0  0  0  0  0  0  0  0  0
    1.7395    4.0129    0.0000 C   0  0  0  0  0  0  0  0  0  0  0  0
    1.7306    5.0180    0.0000 C   0  0  0  0  0  0  0  0  0  0  0  0
    0.8675    2.5129    0.0000 S   0  0  0  0  0  0  0  0  0  0  0  0
    1.8675    2.5129    0.0000 O   0  0  0  0  0  0  0  0  0  0  0  0
   -0.1325    2.5129    0.0000 O   0  0  0  0  0  0  0  0  0  0  0  0
    0.8675    1.5129    0.0000 N   0  0  0  0  0  0  0  0  0  0  0  0
    0.0000    1.0052    0.0000 C   0  0  0  0  0  0  0  0  0  0  0  0
    0.0000    0.0000    0.0000 C   0  0  0  0  0  0  0  0  0  0  0  0
   -0.8653   -0.5013    0.0000 C   0  0  0  0  0  0  0  0  0  0  0  0
    0.8675   -0.4975    0.0000 N   0  0  0  0  0  0  0  0  0  0  0  0
    1.7350    0.0000    0.0000 C   0  0  0  0  0  0  0  0  0  0  0  0
    1.7350    1.0052    0.0000 C   0  0  0  0  0  0  0  0  0  0  0  0
    2.6025    1.5026    0.0000 C   0  0  0  0  0  0  0  0  0  0  0  0
    0.8675   -1.4975    0.0000 S   0  0  0  0  0  0  0  0  0  0  0  0
   -0.1325   -1.4975    0.0000 O   0  0  0  0  0  0  0  0  0  0  0  0
    1.8675   -1.4975    0.0000 O   0  0  0  0  0  0  0  0  0  0  0  0
    0.8675   -2.4975    0.0000 C   0  0  0  0  0  0  0  0  0  0  0  0
    1.7395   -2.9975    0.0000 C   0  0  0  0  0  0  0  0  0  0  0  0
    1.7396   -3.9976    0.0000 C   0  0  0  0  0  0  0  0  0  0  0  0
    0.8764   -4.5026    0.0000 C   0  0  0  0  0  0  0  0  0  0  0  0
    0.8808   -5.5026    0.0000 O   0  0  0  0  0  0  0  0  0  0  0  0
    0.0170   -6.0064    0.0000 C   0  0  0  0  0  0  0  0  0  0  0  0
    0.0044   -4.0026    0.0000 C   0  0  0  0  0  0  0  0  0  0  0  0
   -0.0045   -2.9975    0.0000 C   0  0  0  0  0  0  0  0  0  0  0  0
  1  2  1  0
  2  3  1  0
  3  8  2  0
  3  4  1  0
  4  5  2  0
  5  6  1  0
  6  7  2  0
  7  8  1  0
  6  9  1  0
  9 10  2  0
  9 11  2  0
  9 12  1  0
 12 18  1  0
 12 13  1  0
 13 14  1  0
 14 15  1  0
 14 16  1  0
 16 17  1  0
 17 18  1  0
 18 19  1  0
 16 20  1  0
 20 21  2  0
 20 22  2  0
 20 23  1  0
 23 30  1  0
 23 24  2  0
 24 25  1  0
 25 26  2  0
 26 27  1  0
 27 28  1  0
 26 29  1  0
 29 30  2  0
M  END
>  <SMILES>  (477) 
COc1ccc(S(=O)(=O)N2CC(C)N(S(=O)(=O)c3ccc(OC)cc3)CC2C)cc1

>  <CollectionName>  (477) 
chembl

>  <LOG PLASMA PROTEIN BINDING (RAT) (% unbound)>  (477) 
0.143014800254

>  <Internal ID>  (477) 


>  <Source>  (477) 
AstraZeneca

$$$$
CHEMBL1256568
     RDKit          2D

 14 14  0  0  0  0  0  0  0  0999 V2000
    5.1991    1.9899    0.0000 O   0  0  0  0  0  0  0  0  0  0  0  0
    4.3316    1.4925    0.0000 C   0  0  0  0  0  0  0  0  0  0  0  0
    4.3286    0.4925    0.0000 O   0  0  0  0  0  0  0  0  0  0  0  0
    3.4670    1.9950    0.0000 C   0  0  0  0  0  0  0  0  0  0  0  0
    2.5995    1.4976    0.0000 N   0  0  0  0  0  0  0  0  0  0  0  0
    1.7350    2.0001    0.0000 C   0  0  0  0  0  0  0  0  0  0  0  0
    1.7379    3.0001    0.0000 O   0  0  0  0  0  0  0  0  0  0  0  0
    0.8675    1.5027    0.0000 C   0  0  0  0  0  0  0  0  0  0  0  0
   -0.0000    2.0104    0.0000 N   0  0  0  0  0  0  0  0  0  0  0  0
   -0.8675    1.5027    0.0000 C   0  0  0  0  0  0  0  0  0  0  0  0
   -0.8675    0.4975    0.0000 C   0  0  0  0  0  0  0  0  0  0  0  0
    0.0000    0.0000    0.0000 C   0  0  0  0  0  0  0  0  0  0  0  0
    0.8675    0.4975    0.0000 C   0  0  0  0  0  0  0  0  0  0  0  0
    1.7328   -0.0038    0.0000 O   0  0  0  0  0  0  0  0  0  0  0  0
  1  2  1  0
  2  3  2  0
  2  4  1  0
  4  5  1  0
  5  6  1  0
  6  7  2  0
  6  8  1  0
  8 13  2  0
  8  9  1  0
  9 10  2  0
 10 11  1  0
 11 12  2  0
 12 13  1  0
 13 14  1  0
M  END
>  <SMILES>  (478) 
O=C(O)CNC(=O)c1ncccc1O

>  <CollectionName>  (478) 
chembl

>  <LOG PLASMA PROTEIN BINDING (RAT) (% unbound)>  (478) 
1.3807537708

>  <Internal ID>  (478) 


>  <Source>  (478) 
AstraZeneca

$$$$
CHEMBL319118
     RDKit          2D

 27 29  0  0  1  0  0  0  0  0999 V2000
    5.2006    1.9977    0.0000 C   0  0  0  0  0  0  0  0  0  0  0  0
    4.3346    1.4976    0.0000 O   0  0  0  0  0  0  0  0  0  0  0  0
    4.3346    0.4976    0.0000 C   0  0  0  0  0  0  0  0  0  0  0  0
    5.2000   -0.0036    0.0000 C   0  0  0  0  0  0  0  0  0  0  0  0
    5.2044   -1.0036    0.0000 C   0  0  0  0  0  0  0  0  0  0  0  0
    4.3346   -1.5075    0.0000 C   0  0  0  0  0  0  0  0  0  0  0  0
    4.3391   -2.5075    0.0000 O   0  0  0  0  0  0  0  0  0  0  0  0
    5.2073   -3.0036    0.0000 C   0  0  0  0  0  0  0  0  0  0  0  0
    5.7034   -2.1354    0.0000 F   0  0  0  0  0  0  0  0  0  0  0  0
    4.7112   -3.8719    0.0000 F   0  0  0  0  0  0  0  0  0  0  0  0
    6.0755   -3.4998    0.0000 F   0  0  0  0  0  0  0  0  0  0  0  0
    3.4604   -1.0114    0.0000 C   0  0  0  0  0  0  0  0  0  0  0  0
    3.4648   -0.0063    0.0000 C   0  0  0  0  0  0  0  0  0  0  0  0
    2.5995    0.4950    0.0000 C   0  0  0  0  0  0  0  0  0  0  0  0
    1.7328   -0.0038    0.0000 N   0  0  0  0  0  0  0  0  0  0  0  0
    0.8675    0.4975    0.0000 C   0  0  0  0  0  0  0  0  0  0  0  0
    0.0000    0.0000    0.0000 C   0  0  0  0  0  0  0  0  0  0  0  0
   -0.8675    0.4975    0.0000 C   0  0  0  0  0  0  0  0  0  0  0  0
   -0.8675    1.5027    0.0000 C   0  0  0  0  0  0  0  0  0  0  0  0
   -0.0000    2.0104    0.0000 N   0  0  0  0  0  0  0  0  0  0  0  0
    0.8675    1.5027    0.0000 C   0  0  0  0  0  0  0  0  0  0  0  0
    1.7350    2.0001    0.0000 C   0  0  0  0  0  0  0  0  0  0  0  0
    1.7350    3.0053    0.0000 C   0  0  0  0  0  0  0  0  0  0  0  0
    2.6025    3.5028    0.0000 C   0  0  0  0  0  0  0  0  0  0  0  0
    3.4700    3.0053    0.0000 C   0  0  0  0  0  0  0  0  0  0  0  0
    3.4700    2.0001    0.0000 C   0  0  0  0  0  0  0  0  0  0  0  0
    2.6025    1.4924    0.0000 C   0  0  0  0  0  0  0  0  0  0  0  0
  1  2  1  0
  2  3  1  0
  3 13  2  0
  3  4  1  0
  4  5  2  0
  5  6  1  0
  6  7  1  0
  7  8  1  0
  8  9  1  0
  8 10  1  0
  8 11  1  0
  6 12  2  0
 12 13  1  0
 13 14  1  0
 14 15  1  0
 16 15  1  1
 16 21  1  0
 16 17  1  0
 17 18  1  0
 18 19  1  0
 19 20  1  0
 20 21  1  0
 21 22  1  1
 22 27  1  0
 22 23  2  0
 23 24  1  0
 24 25  2  0
 25 26  1  0
 26 27  2  0
M  END
>  <SMILES>  (479) 
COc1ccc(OC(F)(F)F)cc1CN[C@H]1CCCN[C@H]1c1ccccc1

>  <CollectionName>  (479) 
chembl

>  <LOG PLASMA PROTEIN BINDING (RAT) (% unbound)>  (479) 
0.967547976219

>  <Internal ID>  (479) 


>  <Source>  (479) 
AstraZeneca

$$$$
CHEMBL1221681
     RDKit          2D

 28 31  0  0  1  0  0  0  0  0999 V2000
    0.0020    3.0138    0.0000 O   0  0  0  0  0  0  0  0  0  0  0  0
    0.8680    2.5138    0.0000 C   0  0  0  0  0  0  0  0  0  0  0  0
    1.7340    3.0138    0.0000 C   0  0  0  0  0  0  0  0  0  0  0  0
    1.7340    4.0138    0.0000 N   0  0  0  0  0  0  0  0  0  0  0  0
    2.6001    4.5138    0.0000 C   0  0  0  0  0  0  0  0  0  0  0  0
    2.7057    5.5098    0.0000 C   0  0  0  0  0  0  0  0  0  0  0  0
    3.6849    5.7193    0.0000 C   0  0  0  0  0  0  0  0  0  0  0  0
    4.1838    4.8526    0.0000 C   0  0  0  0  0  0  0  0  0  0  0  0
    3.5181    4.1061    0.0000 C   0  0  0  0  0  0  0  0  0  0  0  0
    3.7288    3.1286    0.0000 O   0  0  0  0  0  0  0  0  0  0  0  0
    4.6807    2.8223    0.0000 C   0  0  0  0  0  0  0  0  0  0  0  0
    5.4219    3.4935    0.0000 C   0  0  0  0  0  0  0  0  0  0  0  0
    6.3779    3.1828    0.0000 C   0  0  0  0  0  0  0  0  0  0  0  0
    7.1192    3.8541    0.0000 C   0  0  0  0  0  0  0  0  0  0  0  0
    6.9142    4.8329    0.0000 C   0  0  0  0  0  0  0  0  0  0  0  0
    5.9582    5.1436    0.0000 C   0  0  0  0  0  0  0  0  0  0  0  0
    5.2072    4.4755    0.0000 C   0  0  0  0  0  0  0  0  0  0  0  0
    0.8680    1.5138    0.0000 C   0  0  0  0  0  0  0  0  0  0  0  0
    0.0000    1.0058    0.0000 C   0  0  0  0  0  0  0  0  0  0  0  0
    0.0000    0.0000    0.0000 C   0  0  0  0  0  0  0  0  0  0  0  0
    0.8680   -0.4978    0.0000 C   0  0  0  0  0  0  0  0  0  0  0  0
    0.8675   -1.4978    0.0000 O   0  0  0  0  0  0  0  0  0  0  0  0
    1.7360   -0.0012    0.0000 C   0  0  0  0  0  0  0  0  0  0  0  0
    2.6938   -0.3125    0.0000 N   0  0  0  0  0  0  0  0  0  0  0  0
    3.2858    0.5023    0.0000 C   0  0  0  0  0  0  0  0  0  0  0  0
    4.2858    0.5024    0.0000 O   0  0  0  0  0  0  0  0  0  0  0  0
    2.6938    1.3169    0.0000 S   0  0  0  0  0  0  0  0  0  0  0  0
    1.7360    1.0058    0.0000 C   0  0  0  0  0  0  0  0  0  0  0  0
  2  1  1  1
  2  3  1  0
  3  4  1  0
  5  4  1  1
  5  9  1  0
  5  6  1  0
  6  7  1  0
  7  8  1  0
  8  9  1  0
  9 10  1  6
 10 11  1  0
 11 12  1  0
 12 17  1  0
 12 13  2  0
 13 14  1  0
 14 15  2  0
 15 16  1  0
 16 17  2  0
  2 18  1  0
 18 28  1  0
 18 19  2  0
 19 20  1  0
 20 21  2  0
 21 22  1  0
 21 23  1  0
 23 28  2  0
 23 24  1  0
 24 25  1  0
 25 26  2  0
 25 27  1  0
 27 28  1  0
M  END
>  <SMILES>  (480) 
O=c1[nH]c2c(O)ccc([C@@H](O)CN[C@H]3CCC[C@@H]3OCc3ccccc3)c2s1

>  <CollectionName>  (480) 
chembl

>  <LOG PLASMA PROTEIN BINDING (RAT) (% unbound)>  (480) 
1.25406445291

>  <Internal ID>  (480) 


>  <Source>  (480) 
AstraZeneca

$$$$
CHEMBL2113096
     RDKit          2D

 26 29  0  0  0  0  0  0  0  0999 V2000
    5.2909    4.0438    0.0000 C   0  0  0  0  0  0  0  0  0  0  0  0
    4.7017    4.8517    0.0000 C   0  0  0  0  0  0  0  0  0  0  0  0
    5.0085    5.8052    0.0000 N   0  0  0  0  0  0  0  0  0  0  0  0
    4.1980    6.3935    0.0000 C   0  0  0  0  0  0  0  0  0  0  0  0
    3.3908    5.8032    0.0000 C   0  0  0  0  0  0  0  0  0  0  0  0
    3.6970    4.8508    0.0000 N   0  0  0  0  0  0  0  0  0  0  0  0
    3.1083    4.0424    0.0000 C   0  0  0  0  0  0  0  0  0  0  0  0
    3.4194    3.0915    0.0000 S   0  0  0  0  0  0  0  0  0  0  0  0
    2.6054    2.5026    0.0000 C   0  0  0  0  0  0  0  0  0  0  0  0
    2.6025    1.5026    0.0000 N   0  0  0  0  0  0  0  0  0  0  0  0
    1.7350    1.0052    0.0000 C   0  0  0  0  0  0  0  0  0  0  0  0
    1.7350    0.0000    0.0000 C   0  0  0  0  0  0  0  0  0  0  0  0
    0.8675   -0.4975    0.0000 N   0  0  0  0  0  0  0  0  0  0  0  0
    0.0000    0.0000    0.0000 C   0  0  0  0  0  0  0  0  0  0  0  0
    0.0000    1.0052    0.0000 C   0  0  0  0  0  0  0  0  0  0  0  0
    0.8675    1.5129    0.0000 N   0  0  0  0  0  0  0  0  0  0  0  0
    1.7974    3.0946    0.0000 N   0  0  0  0  0  0  0  0  0  0  0  0
    2.1083    4.0466    0.0000 C   0  0  0  0  0  0  0  0  0  0  0  0
    1.5228    4.8573    0.0000 C   0  0  0  0  0  0  0  0  0  0  0  0
    0.5232    4.7521    0.0000 C   0  0  0  0  0  0  0  0  0  0  0  0
   -0.0624    5.5628    0.0000 C   0  0  0  0  0  0  0  0  0  0  0  0
    0.3416    6.4776    0.0000 C   0  0  0  0  0  0  0  0  0  0  0  0
    1.3413    6.5827    0.0000 C   0  0  0  0  0  0  0  0  0  0  0  0
    1.9370    5.7731    0.0000 C   0  0  0  0  0  0  0  0  0  0  0  0
    1.7453    7.4975    0.0000 C   0  0  0  0  0  0  0  0  0  0  0  0
    2.1492    8.4123    0.0000 N   0  0  0  0  0  0  0  0  0  0  0  0
  1  2  1  0
  2  6  1  0
  2  3  2  0
  3  4  1  0
  4  5  2  0
  5  6  1  0
  6  7  1  0
  7 18  2  0
  7  8  1  0
  8  9  1  0
  9 10  1  0
 10 11  1  0
 11 16  1  0
 11 12  2  0
 12 13  1  0
 13 14  2  0
 14 15  1  0
 15 16  2  0
  9 17  2  0
 17 18  1  0
 18 19  1  0
 19 24  1  0
 19 20  2  0
 20 21  1  0
 21 22  2  0
 22 23  1  0
 23 24  2  0
 23 25  1  0
 25 26  3  0
M  END
>  <SMILES>  (481) 
Cc1nccn1-c1sc(Nc2cnccn2)nc1-c1cccc(C#N)c1

>  <CollectionName>  (481) 
chembl

>  <LOG PLASMA PROTEIN BINDING (RAT) (% unbound)>  (481) 
0.64048143697

>  <Internal ID>  (481) 


>  <Source>  (481) 
AstraZeneca

$$$$
CHEMBL301856
     RDKit          2D

 15 16  0  0  0  0  0  0  0  0999 V2000
    2.6025    1.5026    0.0000 N   0  0  0  0  0  0  0  0  0  0  0  0
    1.7350    1.0052    0.0000 C   0  0  0  0  0  0  0  0  0  0  0  0
    1.7350    0.0000    0.0000 N   0  0  0  0  0  0  0  0  0  0  0  0
    0.8675   -0.4975    0.0000 C   0  0  0  0  0  0  0  0  0  0  0  0
    0.8675   -1.4975    0.0000 O   0  0  0  0  0  0  0  0  0  0  0  0
    0.0000    0.0000    0.0000 C   0  0  0  0  0  0  0  0  0  0  0  0
   -0.8653   -0.5013    0.0000 Cl  0  0  0  0  0  0  0  0  0  0  0  0
    0.0000    1.0052    0.0000 C   0  0  0  0  0  0  0  0  0  0  0  0
    0.8675    1.5129    0.0000 N   0  0  0  0  0  0  0  0  0  0  0  0
   -0.8675    1.5026    0.0000 C   0  0  0  0  0  0  0  0  0  0  0  0
   -1.7350    0.9949    0.0000 C   0  0  0  0  0  0  0  0  0  0  0  0
   -2.6026    1.4923    0.0000 C   0  0  0  0  0  0  0  0  0  0  0  0
   -2.6114    2.4923    0.0000 C   0  0  0  0  0  0  0  0  0  0  0  0
   -1.7438    3.0001    0.0000 C   0  0  0  0  0  0  0  0  0  0  0  0
   -0.8675    2.5078    0.0000 C   0  0  0  0  0  0  0  0  0  0  0  0
  1  2  1  0
  2  9  2  0
  2  3  1  0
  3  4  2  0
  4  5  1  0
  4  6  1  0
  6  7  1  0
  6  8  2  0
  8  9  1  0
  8 10  1  0
 10 15  1  0
 10 11  2  0
 11 12  1  0
 12 13  2  0
 13 14  1  0
 14 15  2  0
M  END
>  <SMILES>  (482) 
Nc1nc(O)c(Cl)c(-c2ccccc2)n1

>  <CollectionName>  (482) 
chembl

>  <LOG PLASMA PROTEIN BINDING (RAT) (% unbound)>  (482) 
0.820201459486

>  <Internal ID>  (482) 


>  <Source>  (482) 
AstraZeneca

$$$$
CHEMBL304087
     RDKit          2D

 33 36  0  0  1  0  0  0  0  0999 V2000
    0.2260    2.6017    0.0000 C   0  0  0  0  0  0  0  0  0  0  0  0
   -0.7247    2.9117    0.0000 O   0  0  0  0  0  0  0  0  0  0  0  0
   -1.4685    2.2433    0.0000 C   0  0  0  0  0  0  0  0  0  0  0  0
   -2.4232    2.5578    0.0000 C   0  0  0  0  0  0  0  0  0  0  0  0
   -3.1649    1.8794    0.0000 C   0  0  0  0  0  0  0  0  0  0  0  0
   -4.1175    2.1838    0.0000 N   0  0  0  0  0  0  0  0  0  0  0  0
   -4.8574    1.5111    0.0000 C   0  0  0  0  0  0  0  0  0  0  0  0
   -4.6447    0.5340    0.0000 O   0  0  0  0  0  0  0  0  0  0  0  0
   -5.8099    1.8155    0.0000 N   0  0  0  0  0  0  0  0  0  0  0  0
   -6.5498    1.1428    0.0000 C   0  0  0  0  0  0  0  0  0  0  0  0
   -6.3332    0.1612    0.0000 C   0  0  0  0  0  0  0  0  0  0  0  0
   -7.0731   -0.5116    0.0000 C   0  0  0  0  0  0  0  0  0  0  0  0
   -8.0274   -0.2127    0.0000 C   0  0  0  0  0  0  0  0  0  0  0  0
   -8.2440    0.7689    0.0000 C   0  0  0  0  0  0  0  0  0  0  0  0
   -9.1984    1.0677    0.0000 C   0  0  0  0  0  0  0  0  0  0  0  0
   -9.9343    0.3906    0.0000 N   0  0  0  0  0  0  0  0  0  0  0  0
  -10.8886    0.6894    0.0000 C   0  0  0  0  0  0  0  0  0  0  0  0
  -11.1070    1.6652    0.0000 O   0  0  0  0  0  0  0  0  0  0  0  0
  -11.6245    0.0123    0.0000 O   0  0  0  0  0  0  0  0  0  0  0  0
  -12.5788    0.3111    0.0000 C   0  0  0  0  0  0  0  0  0  0  0  0
  -13.3820   -0.2872    0.0000 C   0  0  0  0  0  0  0  0  0  0  0  0
  -14.1964    0.2931    0.0000 C   0  0  0  0  0  0  0  0  0  0  0  0
  -13.9020    1.2492    0.0000 O   0  0  0  0  0  0  0  0  0  0  0  0
  -12.8975    1.2607    0.0000 C   0  0  0  0  0  0  0  0  0  0  0  0
   -7.5064    1.4516    0.0000 C   0  0  0  0  0  0  0  0  0  0  0  0
   -2.9541    0.8966    0.0000 C   0  0  0  0  0  0  0  0  0  0  0  0
   -2.0015    0.5921    0.0000 C   0  0  0  0  0  0  0  0  0  0  0  0
   -1.2577    1.2605    0.0000 C   0  0  0  0  0  0  0  0  0  0  0  0
   -0.3065    0.9519    0.0000 C   0  0  0  0  0  0  0  0  0  0  0  0
    0.5008    1.5428    0.0000 O   0  0  0  0  0  0  0  0  0  0  0  0
    1.3133    0.9519    0.0000 C   0  0  0  0  0  0  0  0  0  0  0  0
    1.0015   -0.0000    0.0000 N   0  0  0  0  0  0  0  0  0  0  0  0
    0.0000    0.0000    0.0000 C   0  0  0  0  0  0  0  0  0  0  0  0
  1  2  1  0
  2  3  1  0
  3 28  2  0
  3  4  1  0
  4  5  2  0
  5  6  1  0
  6  7  1  0
  7  8  2  0
  7  9  1  0
  9 10  1  0
 10 25  1  0
 10 11  2  0
 11 12  1  0
 12 13  2  0
 13 14  1  0
 14 15  1  0
 15 16  1  0
 16 17  1  0
 17 18  2  0
 17 19  1  0
 20 19  1  1
 20 24  1  0
 20 21  1  0
 21 22  1  0
 22 23  1  0
 23 24  1  0
 14 25  2  0
  5 26  1  0
 26 27  2  0
 27 28  1  0
 28 29  1  0
 29 33  2  0
 29 30  1  0
 30 31  1  0
 31 32  2  0
 32 33  1  0
M  END
>  <SMILES>  (483) 
COc1cc(NC(=O)Nc2cccc(CNC(=O)O[C@H]3CCOC3)c2)ccc1-c1cnco1

>  <CollectionName>  (483) 
chembl

>  <LOG PLASMA PROTEIN BINDING (RAT) (% unbound)>  (483) 
-0.0555173278498

>  <Internal ID>  (483) 


>  <Source>  (483) 
AstraZeneca

$$$$
CHEMBL1580912
     RDKit          2D

 18 19  0  0  0  0  0  0  0  0999 V2000
    6.0587   -4.5163    0.0000 Cl  0  0  0  0  0  0  0  0  0  0  0  0
    5.1956   -4.0113    0.0000 C   0  0  0  0  0  0  0  0  0  0  0  0
    4.3236   -4.5113    0.0000 C   0  0  0  0  0  0  0  0  0  0  0  0
    3.4605   -4.0063    0.0000 C   0  0  0  0  0  0  0  0  0  0  0  0
    3.4605   -3.0063    0.0000 C   0  0  0  0  0  0  0  0  0  0  0  0
    2.5952   -2.5050    0.0000 C   0  0  0  0  0  0  0  0  0  0  0  0
    2.5966   -1.5050    0.0000 C   0  0  0  0  0  0  0  0  0  0  0  0
    1.7313   -1.0038    0.0000 N   0  0  0  0  0  0  0  0  0  0  0  0
    1.7328   -0.0038    0.0000 C   0  0  0  0  0  0  0  0  0  0  0  0
    2.5995    0.4950    0.0000 O   0  0  0  0  0  0  0  0  0  0  0  0
    0.8675    0.4975    0.0000 C   0  0  0  0  0  0  0  0  0  0  0  0
    0.0000    0.0000    0.0000 C   0  0  0  0  0  0  0  0  0  0  0  0
   -0.8675    0.4975    0.0000 C   0  0  0  0  0  0  0  0  0  0  0  0
   -0.8675    1.5027    0.0000 C   0  0  0  0  0  0  0  0  0  0  0  0
   -0.0000    2.0104    0.0000 N   0  0  0  0  0  0  0  0  0  0  0  0
    0.8675    1.5027    0.0000 C   0  0  0  0  0  0  0  0  0  0  0  0
    4.3325   -2.5062    0.0000 C   0  0  0  0  0  0  0  0  0  0  0  0
    5.2045   -3.0062    0.0000 C   0  0  0  0  0  0  0  0  0  0  0  0
  1  2  1  0
  2 18  2  0
  2  3  1  0
  3  4  2  0
  4  5  1  0
  5  6  1  0
  6  7  1  0
  7  8  1  0
  8  9  1  0
  9 10  2  0
  9 11  1  0
 11 16  1  0
 11 12  2  0
 12 13  1  0
 13 14  2  0
 14 15  1  0
 15 16  2  0
  5 17  2  0
 17 18  1  0
M  END
>  <SMILES>  (484) 
O=C(NCCc1ccc(Cl)cc1)c1cccnc1

>  <CollectionName>  (484) 
chembl

>  <LOG PLASMA PROTEIN BINDING (RAT) (% unbound)>  (484) 
0.931457870689

>  <Internal ID>  (484) 


>  <Source>  (484) 
AstraZeneca

$$$$
CHEMBL2064327
     RDKit          2D

 26 29  0  0  0  0  0  0  0  0999 V2000
    0.8700    4.5224    0.0000 C   0  0  0  0  0  0  0  0  0  0  0  0
    0.0032    4.0237    0.0000 C   0  0  0  0  0  0  0  0  0  0  0  0
   -0.8650    4.5301    0.0000 C   0  0  0  0  0  0  0  0  0  0  0  0
   -1.7318    4.0212    0.0000 C   0  0  0  0  0  0  0  0  0  0  0  0
   -2.6000    4.5174    0.0000 F   0  0  0  0  0  0  0  0  0  0  0  0
   -1.7303    3.0160    0.0000 C   0  0  0  0  0  0  0  0  0  0  0  0
   -0.8621    2.5197    0.0000 C   0  0  0  0  0  0  0  0  0  0  0  0
    0.0047    3.0185    0.0000 C   0  0  0  0  0  0  0  0  0  0  0  0
    0.8707    2.5185    0.0000 O   0  0  0  0  0  0  0  0  0  0  0  0
    0.8707    1.5185    0.0000 C   0  0  0  0  0  0  0  0  0  0  0  0
    0.0000    1.0089    0.0000 C   0  0  0  0  0  0  0  0  0  0  0  0
    0.0000    0.0000    0.0000 C   0  0  0  0  0  0  0  0  0  0  0  0
    0.8707   -0.4993    0.0000 C   0  0  0  0  0  0  0  0  0  0  0  0
    1.7371   -0.0000    0.0000 C   0  0  0  0  0  0  0  0  0  0  0  0
    2.6039   -0.5053    0.0000 C   0  0  0  0  0  0  0  0  0  0  0  0
    2.5983   -1.5053    0.0000 O   0  0  0  0  0  0  0  0  0  0  0  0
    3.4805   -0.0073    0.0000 C   0  0  0  0  0  0  0  0  0  0  0  0
    3.4848    1.0014    0.0000 C   0  0  0  0  0  0  0  0  0  0  0  0
    2.6125    1.5125    0.0000 N   0  0  0  0  0  0  0  0  0  0  0  0
    1.7414    1.0089    0.0000 C   0  0  0  0  0  0  0  0  0  0  0  0
    4.3535    1.4968    0.0000 N   0  0  0  0  0  0  0  0  0  0  0  0
    4.3559    2.4968    0.0000 C   0  0  0  0  0  0  0  0  0  0  0  0
    5.2291    2.9948    0.0000 C   0  0  0  0  0  0  0  0  0  0  0  0
    6.0999    2.4927    0.0000 O   0  0  0  0  0  0  0  0  0  0  0  0
    6.0886    1.4876    0.0000 C   0  0  0  0  0  0  0  0  0  0  0  0
    5.2154    0.9896    0.0000 C   0  0  0  0  0  0  0  0  0  0  0  0
  1  2  1  0
  2  8  2  0
  2  3  1  0
  3  4  2  0
  4  5  1  0
  4  6  1  0
  6  7  2  0
  7  8  1  0
  8  9  1  0
  9 10  1  0
 10 20  1  0
 10 11  2  0
 11 12  1  0
 12 13  2  0
 13 14  1  0
 14 20  2  0
 14 15  1  0
 15 16  2  0
 15 17  1  0
 17 18  2  0
 18 19  1  0
 19 20  1  0
 18 21  1  0
 21 26  1  0
 21 22  1  0
 22 23  1  0
 23 24  1  0
 24 25  1  0
 25 26  1  0
M  END
>  <SMILES>  (485) 
Cc1cc(F)ccc1Oc1cccc2c(=O)cc(N3CCOCC3)[nH]c12

>  <CollectionName>  (485) 
chembl

>  <LOG PLASMA PROTEIN BINDING (RAT) (% unbound)>  (485) 
0.931457870689

>  <Internal ID>  (485) 


>  <Source>  (485) 
AstraZeneca

$$$$
CHEMBL2071493
     RDKit          2D

 22 23  0  0  1  0  0  0  0  0999 V2000
    2.6114    4.5026    0.0000 C   0  0  0  0  0  0  0  0  0  0  0  0
    3.4759    4.0001    0.0000 C   0  0  0  0  0  0  0  0  0  0  0  0
    4.3434    4.4975    0.0000 C   0  0  0  0  0  0  0  0  0  0  0  0
    3.4729    3.0001    0.0000 C   0  0  0  0  0  0  0  0  0  0  0  0
    2.6054    2.5026    0.0000 N   0  0  0  0  0  0  0  0  0  0  0  0
    2.6025    1.5026    0.0000 C   0  0  0  0  0  0  0  0  0  0  0  0
    3.4670    1.0001    0.0000 O   0  0  0  0  0  0  0  0  0  0  0  0
    1.7350    1.0052    0.0000 C   0  0  0  0  0  0  0  0  0  0  0  0
    1.7350   -0.0000    0.0000 C   0  0  0  0  0  0  0  0  0  0  0  0
    0.8675   -0.4975    0.0000 C   0  0  0  0  0  0  0  0  0  0  0  0
    0.0000    0.0000    0.0000 C   0  0  0  0  0  0  0  0  0  0  0  0
    0.0000    1.0052    0.0000 C   0  0  0  0  0  0  0  0  0  0  0  0
    0.8675    1.5129    0.0000 C   0  0  0  0  0  0  0  0  0  0  0  0
    4.3375    2.4975    0.0000 C   0  0  0  0  0  0  0  0  0  0  0  0
    4.3345    1.4975    0.0000 O   0  0  0  0  0  0  0  0  0  0  0  0
    5.2050    2.9950    0.0000 C   0  0  0  0  0  0  0  0  0  0  0  0
    5.2094    3.9950    0.0000 C   0  0  0  0  0  0  0  0  0  0  0  0
    6.0747    4.4962    0.0000 C   0  0  0  0  0  0  0  0  0  0  0  0
    6.9445    3.9923    0.0000 C   0  0  0  0  0  0  0  0  0  0  0  0
    7.8098    4.4936    0.0000 F   0  0  0  0  0  0  0  0  0  0  0  0
    6.9489    2.9872    0.0000 C   0  0  0  0  0  0  0  0  0  0  0  0
    6.0748    2.4911    0.0000 C   0  0  0  0  0  0  0  0  0  0  0  0
  1  2  1  0
  2  3  1  0
  2  4  1  0
  4  5  1  0
  5  6  1  0
  6  7  2  0
  6  8  1  0
  8 13  1  0
  8  9  2  0
  9 10  1  0
 10 11  2  0
 11 12  1  0
 12 13  2  0
  4 14  1  0
 14 15  2  0
 14 16  1  0
 16 22  1  0
 16 17  2  0
 17 18  1  0
 18 19  2  0
 19 20  1  0
 19 21  1  0
 21 22  2  0
M  END
>  <SMILES>  (486) 
CC(C)C(NC(=O)c1ccccc1)C(=O)c1ccc(F)cc1

>  <CollectionName>  (486) 
chembl

>  <LOG PLASMA PROTEIN BINDING (RAT) (% unbound)>  (486) 
0.922206277439

>  <Internal ID>  (486) 


>  <Source>  (486) 
AstraZeneca

$$$$
CHEMBL2087421
     RDKit          2D

 34 36  0  0  1  0  0  0  0  0999 V2000
    1.7385  -13.0194    0.0000 C   0  0  0  0  0  0  0  0  0  0  0  0
    2.6024  -12.5155    0.0000 O   0  0  0  0  0  0  0  0  0  0  0  0
    2.5980  -11.5156    0.0000 C   0  0  0  0  0  0  0  0  0  0  0  0
    3.4678  -11.0117    0.0000 C   0  0  0  0  0  0  0  0  0  0  0  0
    3.4634  -10.0117    0.0000 C   0  0  0  0  0  0  0  0  0  0  0  0
    4.3287   -9.5104    0.0000 C   0  0  0  0  0  0  0  0  0  0  0  0
    2.5981   -9.5104    0.0000 C   0  0  0  0  0  0  0  0  0  0  0  0
    1.7283  -10.0143    0.0000 C   0  0  0  0  0  0  0  0  0  0  0  0
    0.8630   -9.5130    0.0000 C   0  0  0  0  0  0  0  0  0  0  0  0
    1.7238  -11.0194    0.0000 C   0  0  0  0  0  0  0  0  0  0  0  0
    2.5981   -8.5104    0.0000 S   0  0  0  0  0  0  0  0  0  0  0  0
    1.5981   -8.5104    0.0000 O   0  0  0  0  0  0  0  0  0  0  0  0
    3.5981   -8.5104    0.0000 O   0  0  0  0  0  0  0  0  0  0  0  0
    2.5981   -7.5104    0.0000 N   0  0  0  0  0  0  0  0  0  0  0  0
    3.4641   -7.0104    0.0000 C   0  0  0  0  0  0  0  0  0  0  0  0
    1.7321   -7.0104    0.0000 C   0  0  0  0  0  0  0  0  0  0  0  0
    1.7321   -6.0104    0.0000 C   0  0  0  0  0  0  0  0  0  0  0  0
    0.8660   -5.5104    0.0000 O   0  0  0  0  0  0  0  0  0  0  0  0
    0.8660   -4.5104    0.0000 C   0  0  0  0  0  0  0  0  0  0  0  0
    0.0000   -4.0104    0.0000 C   0  0  0  0  0  0  0  0  0  0  0  0
   -0.8660   -4.5104    0.0000 O   0  0  0  0  0  0  0  0  0  0  0  0
    0.0000   -3.0104    0.0000 N   0  0  0  0  0  0  0  0  0  0  0  0
    0.8675   -2.5027    0.0000 C   0  0  0  0  0  0  0  0  0  0  0  0
    0.8675   -1.4975    0.0000 C   0  0  0  0  0  0  0  0  0  0  0  0
    0.0000   -1.0000    0.0000 N   0  0  0  0  0  0  0  0  0  0  0  0
   -0.8675   -1.4975    0.0000 C   0  0  0  0  0  0  0  0  0  0  0  0
   -0.8675   -2.5027    0.0000 C   0  0  0  0  0  0  0  0  0  0  0  0
    0.0000    0.0000    0.0000 C   0  0  0  0  0  0  0  0  0  0  0  0
   -0.8675    0.4975    0.0000 C   0  0  0  0  0  0  0  0  0  0  0  0
   -0.8675    1.5027    0.0000 C   0  0  0  0  0  0  0  0  0  0  0  0
   -0.0000    2.0104    0.0000 N   0  0  0  0  0  0  0  0  0  0  0  0
   -0.0000    3.0104    0.0000 C   0  0  0  0  0  0  0  0  0  0  0  0
    0.8675    1.5027    0.0000 C   0  0  0  0  0  0  0  0  0  0  0  0
    0.8675    0.4975    0.0000 C   0  0  0  0  0  0  0  0  0  0  0  0
  1  2  1  0
  2  3  1  0
  3 10  2  0
  3  4  1  0
  4  5  2  0
  5  6  1  0
  5  7  1  0
  7  8  2  0
  8  9  1  0
  8 10  1  0
  7 11  1  0
 11 12  2  0
 11 13  2  0
 11 14  1  0
 14 15  1  0
 14 16  1  0
 16 17  1  0
 17 18  1  0
 18 19  1  0
 19 20  1  0
 20 21  2  0
 20 22  1  0
 22 27  1  0
 22 23  1  0
 23 24  1  0
 24 25  1  0
 25 26  1  0
 26 27  1  0
 25 28  1  0
 28 34  1  0
 28 29  1  0
 29 30  1  0
 30 31  1  0
 31 32  1  0
 31 33  1  0
 33 34  1  0
M  END
>  <SMILES>  (487) 
COc1cc(C)c(S(=O)(=O)N(C)CCOCC(=O)N2CCN(C3CCN(C)CC3)CC2)c(C)c1

>  <CollectionName>  (487) 
chembl

>  <LOG PLASMA PROTEIN BINDING (RAT) (% unbound)>  (487) 
1.79892673858

>  <Internal ID>  (487) 


>  <Source>  (487) 
AstraZeneca

$$$$
CHEMBL2087433
     RDKit          2D

 34 36  0  0  1  0  0  0  0  0999 V2000
    1.7385  -13.0194    0.0000 C   0  0  0  0  0  0  0  0  0  0  0  0
    2.6024  -12.5155    0.0000 O   0  0  0  0  0  0  0  0  0  0  0  0
    2.5980  -11.5156    0.0000 C   0  0  0  0  0  0  0  0  0  0  0  0
    3.4678  -11.0117    0.0000 C   0  0  0  0  0  0  0  0  0  0  0  0
    3.4634  -10.0117    0.0000 C   0  0  0  0  0  0  0  0  0  0  0  0
    4.3287   -9.5104    0.0000 C   0  0  0  0  0  0  0  0  0  0  0  0
    2.5981   -9.5104    0.0000 C   0  0  0  0  0  0  0  0  0  0  0  0
    1.7283  -10.0143    0.0000 C   0  0  0  0  0  0  0  0  0  0  0  0
    0.8630   -9.5130    0.0000 C   0  0  0  0  0  0  0  0  0  0  0  0
    1.7238  -11.0194    0.0000 C   0  0  0  0  0  0  0  0  0  0  0  0
    2.5981   -8.5104    0.0000 S   0  0  0  0  0  0  0  0  0  0  0  0
    1.5981   -8.5104    0.0000 O   0  0  0  0  0  0  0  0  0  0  0  0
    3.5981   -8.5104    0.0000 O   0  0  0  0  0  0  0  0  0  0  0  0
    2.5981   -7.5104    0.0000 N   0  0  0  0  0  0  0  0  0  0  0  0
    3.4641   -7.0104    0.0000 C   0  0  0  0  0  0  0  0  0  0  0  0
    1.7321   -7.0104    0.0000 C   0  0  0  0  0  0  0  0  0  0  0  0
    1.7321   -6.0104    0.0000 C   0  0  0  0  0  0  0  0  0  0  0  0
    0.8660   -5.5104    0.0000 O   0  0  0  0  0  0  0  0  0  0  0  0
    0.8660   -4.5104    0.0000 C   0  0  0  0  0  0  0  0  0  0  0  0
    0.0000   -4.0104    0.0000 C   0  0  0  0  0  0  0  0  0  0  0  0
   -0.8660   -4.5104    0.0000 O   0  0  0  0  0  0  0  0  0  0  0  0
    0.0000   -3.0104    0.0000 N   0  0  0  0  0  0  0  0  0  0  0  0
    0.8675   -2.5027    0.0000 C   0  0  0  0  0  0  0  0  0  0  0  0
    0.8675   -1.4975    0.0000 C   0  0  0  0  0  0  0  0  0  0  0  0
    0.0000   -1.0000    0.0000 C   0  0  0  0  0  0  0  0  0  0  0  0
   -0.8675   -1.4975    0.0000 C   0  0  0  0  0  0  0  0  0  0  0  0
   -0.8675   -2.5027    0.0000 C   0  0  0  0  0  0  0  0  0  0  0  0
    0.0000    0.0000    0.0000 C   0  0  0  0  0  0  0  0  0  0  0  0
   -0.8675    0.4975    0.0000 C   0  0  0  0  0  0  0  0  0  0  0  0
   -0.8675    1.5027    0.0000 C   0  0  0  0  0  0  0  0  0  0  0  0
   -0.0000    2.0104    0.0000 N   0  0  0  0  0  0  0  0  0  0  0  0
   -0.0000    3.0104    0.0000 C   0  0  0  0  0  0  0  0  0  0  0  0
    0.8675    1.5027    0.0000 C   0  0  0  0  0  0  0  0  0  0  0  0
    0.8675    0.4975    0.0000 C   0  0  0  0  0  0  0  0  0  0  0  0
  1  2  1  0
  2  3  1  0
  3 10  2  0
  3  4  1  0
  4  5  2  0
  5  6  1  0
  5  7  1  0
  7  8  2  0
  8  9  1  0
  8 10  1  0
  7 11  1  0
 11 12  2  0
 11 13  2  0
 11 14  1  0
 14 15  1  0
 14 16  1  0
 16 17  1  0
 17 18  1  0
 18 19  1  0
 19 20  1  0
 20 21  2  0
 20 22  1  0
 22 27  1  0
 22 23  1  0
 23 24  1  0
 24 25  1  0
 25 26  1  0
 26 27  1  0
 25 28  1  0
 28 34  1  0
 28 29  1  0
 29 30  1  0
 30 31  1  0
 31 32  1  0
 31 33  1  0
 33 34  1  0
M  END
>  <SMILES>  (488) 
COc1cc(C)c(S(=O)(=O)N(C)CCOCC(=O)N2CCC(C3CCN(C)CC3)CC2)c(C)c1

>  <CollectionName>  (488) 
chembl

>  <LOG PLASMA PROTEIN BINDING (RAT) (% unbound)>  (488) 
1.70884563805

>  <Internal ID>  (488) 


>  <Source>  (488) 
AstraZeneca

$$$$
CHEMBL2103840
     RDKit          2D

 29 32  0  0  1  0  0  0  0  0999 V2000
    2.3336   -3.0126    0.0000 C   0  0  0  0  0  0  0  0  0  0  0  0
    3.0028   -2.2695    0.0000 C   0  0  0  0  0  0  0  0  0  0  0  0
    2.6938   -1.3184    0.0000 C   0  0  0  0  0  0  0  0  0  0  0  0
    3.2858   -0.5036    0.0000 C   0  0  0  0  0  0  0  0  0  0  0  0
    2.6938    0.3110    0.0000 N   0  0  0  0  0  0  0  0  0  0  0  0
    1.7360   -0.0000    0.0000 N   0  0  0  0  0  0  0  0  0  0  0  0
    0.8680    0.5079    0.0000 C   0  0  0  0  0  0  0  0  0  0  0  0
    0.8680    1.5079    0.0000 N   0  0  0  0  0  0  0  0  0  0  0  0
    0.0020    2.0079    0.0000 C   0  0  0  0  0  0  0  0  0  0  0  0
    0.0020    3.0079    0.0000 C   0  0  0  0  0  0  0  0  0  0  0  0
   -0.8634    3.5092    0.0000 C   0  0  0  0  0  0  0  0  0  0  0  0
   -0.8677    4.5092    0.0000 C   0  0  0  0  0  0  0  0  0  0  0  0
    0.0021    5.0131    0.0000 C   0  0  0  0  0  0  0  0  0  0  0  0
    0.8762    4.5169    0.0000 N   0  0  0  0  0  0  0  0  0  0  0  0
    1.7415    5.0182    0.0000 O   0  0  0  0  0  0  0  0  0  0  0  0
    0.8718    3.5118    0.0000 C   0  0  0  0  0  0  0  0  0  0  0  0
    0.0000    0.0000    0.0000 C   0  0  0  0  0  0  0  0  0  0  0  0
    0.0000   -1.0058    0.0000 C   0  0  0  0  0  0  0  0  0  0  0  0
    0.8680   -1.5037    0.0000 N   0  0  0  0  0  0  0  0  0  0  0  0
    1.7360   -1.0071    0.0000 C   0  0  0  0  0  0  0  0  0  0  0  0
   -0.8653   -1.5070    0.0000 N   0  0  0  0  0  0  0  0  0  0  0  0
   -1.7395   -1.0108    0.0000 C   0  0  0  0  0  0  0  0  0  0  0  0
   -2.6093   -1.5146    0.0000 C   0  0  0  0  0  0  0  0  0  0  0  0
   -2.6050   -2.5147    0.0000 C   0  0  0  0  0  0  0  0  0  0  0  0
   -1.7397   -3.0160    0.0000 C   0  0  0  0  0  0  0  0  0  0  0  0
   -0.8698   -2.5121    0.0000 C   0  0  0  0  0  0  0  0  0  0  0  0
   -0.0046   -3.0135    0.0000 C   0  0  0  0  0  0  0  0  0  0  0  0
   -0.0061   -4.0135    0.0000 C   0  0  0  0  0  0  0  0  0  0  0  0
    0.8591   -4.5148    0.0000 O   0  0  0  0  0  0  0  0  0  0  0  0
  1  2  1  0
  2  3  1  0
  3 20  2  0
  3  4  1  0
  4  5  2  0
  5  6  1  0
  6 20  1  0
  6  7  1  0
  7  8  1  0
  8  9  1  0
  9 10  1  0
 10 16  1  0
 10 11  2  0
 11 12  1  0
 12 13  2  0
 13 14  1  0
 14 15  1  0
 14 16  2  0
  7 17  2  0
 17 18  1  0
 18 19  2  0
 19 20  1  0
 18 21  1  0
 21 26  1  0
 21 22  1  0
 22 23  1  0
 23 24  1  0
 24 25  1  0
 25 26  1  0
 26 27  1  6
 27 28  1  0
 28 29  1  0
M  CHG  2  14   1  15  -1
M  END
>  <SMILES>  (489) 
CCc1cnn2c(NCc3ccc[n+]([O-])c3)cc(N3CCCC[C@H]3CCO)nc12

>  <CollectionName>  (489) 
chembl

>  <LOG PLASMA PROTEIN BINDING (RAT) (% unbound)>  (489) 
1.24575935597

>  <Internal ID>  (489) 


>  <Source>  (489) 
AstraZeneca

$$$$
CHEMBL421
     RDKit          2D

 28 30  0  0  0  0  0  0  0  0999 V2000
   -1.7291   10.0156    0.0000 O   0  0  0  0  0  0  0  0  0  0  0  0
   -0.8608   10.5117    0.0000 C   0  0  0  0  0  0  0  0  0  0  0  0
   -0.8564   11.5117    0.0000 O   0  0  0  0  0  0  0  0  0  0  0  0
    0.0030   10.0079    0.0000 C   0  0  0  0  0  0  0  0  0  0  0  0
   -0.0045    9.0028    0.0000 C   0  0  0  0  0  0  0  0  0  0  0  0
    0.8682    8.5040    0.0000 C   0  0  0  0  0  0  0  0  0  0  0  0
    1.7395    9.0053    0.0000 C   0  0  0  0  0  0  0  0  0  0  0  0
    1.7381   10.0054    0.0000 C   0  0  0  0  0  0  0  0  0  0  0  0
    0.8742   10.5092    0.0000 C   0  0  0  0  0  0  0  0  0  0  0  0
    0.8772   11.5092    0.0000 O   0  0  0  0  0  0  0  0  0  0  0  0
    0.8697    7.5040    0.0000 N   0  0  0  0  0  0  0  0  0  0  0  0
    1.7364    7.0053    0.0000 N   0  0  0  0  0  0  0  0  0  0  0  0
    1.7379    6.0053    0.0000 C   0  0  0  0  0  0  0  0  0  0  0  0
    0.8733    5.5028    0.0000 C   0  0  0  0  0  0  0  0  0  0  0  0
    0.8704    4.5027    0.0000 C   0  0  0  0  0  0  0  0  0  0  0  0
    1.7409    4.0001    0.0000 C   0  0  0  0  0  0  0  0  0  0  0  0
    2.6143    4.4976    0.0000 C   0  0  0  0  0  0  0  0  0  0  0  0
    2.6084    5.5027    0.0000 C   0  0  0  0  0  0  0  0  0  0  0  0
    1.7379    3.0001    0.0000 S   0  0  0  0  0  0  0  0  0  0  0  0
    2.7379    2.9972    0.0000 O   0  0  0  0  0  0  0  0  0  0  0  0
    0.7380    3.0031    0.0000 O   0  0  0  0  0  0  0  0  0  0  0  0
    1.7350    2.0001    0.0000 N   0  0  0  0  0  0  0  0  0  0  0  0
    0.8675    1.5027    0.0000 C   0  0  0  0  0  0  0  0  0  0  0  0
    0.8675    0.4975    0.0000 C   0  0  0  0  0  0  0  0  0  0  0  0
    0.0000    0.0000    0.0000 C   0  0  0  0  0  0  0  0  0  0  0  0
   -0.8675    0.4975    0.0000 C   0  0  0  0  0  0  0  0  0  0  0  0
   -0.8675    1.5027    0.0000 C   0  0  0  0  0  0  0  0  0  0  0  0
   -0.0000    2.0104    0.0000 N   0  0  0  0  0  0  0  0  0  0  0  0
  1  2  1  0
  2  3  2  0
  2  4  1  0
  4  9  2  0
  4  5  1  0
  5  6  2  0
  6  7  1  0
  7  8  2  0
  8  9  1  0
  9 10  1  0
  6 11  1  0
 11 12  2  3
 12 13  1  0
 13 18  1  0
 13 14  2  0
 14 15  1  0
 15 16  2  0
 16 17  1  0
 17 18  2  0
 16 19  1  0
 19 20  2  0
 19 21  2  0
 19 22  1  0
 22 23  1  0
 23 28  1  0
 23 24  2  0
 24 25  1  0
 25 26  2  0
 26 27  1  0
 27 28  2  0
M  END
>  <SMILES>  (490) 
O=C(O)c1cc(N=Nc2ccc(S(=O)(=O)Nc3ccccn3)cc2)ccc1O

>  <CollectionName>  (490) 
chembl

>  <LOG PLASMA PROTEIN BINDING (RAT) (% unbound)>  (490) 
-0.537602002101

>  <Internal ID>  (490) 


>  <Source>  (490) 
AstraZeneca

$$$$
CHEMBL837
     RDKit          2D

 29 33  0  0  1  0  0  0  0  0999 V2000
    3.4653    2.0142    0.0000 C   0  0  0  0  0  0  0  0  0  0  0  0
    2.6020    1.5096    0.0000 C   0  0  0  0  0  0  0  0  0  0  0  0
    2.6073    0.5096    0.0000 C   0  0  0  0  0  0  0  0  0  0  0  0
    3.4805    0.0130    0.0000 C   0  0  0  0  0  0  0  0  0  0  0  0
    4.3475    0.5248    0.0000 C   0  0  0  0  0  0  0  0  0  0  0  0
    5.2220    0.0166    0.0000 N   0  0  0  0  0  0  0  0  0  0  0  0
    6.0859    0.5202    0.0000 C   0  0  0  0  0  0  0  0  0  0  0  0
    6.0805    1.5202    0.0000 O   0  0  0  0  0  0  0  0  0  0  0  0
    6.9564    0.0252    0.0000 C   0  0  0  0  0  0  0  0  0  0  0  0
    6.9611   -0.9837    0.0000 C   0  0  0  0  0  0  0  0  0  0  0  0
    6.0929   -1.4884    0.0000 C   0  0  0  0  0  0  0  0  0  0  0  0
    5.2230   -0.9888    0.0000 C   0  0  0  0  0  0  0  0  0  0  0  0
    3.4827   -0.9957    0.0000 C   0  0  0  0  0  0  0  0  0  0  0  0
    2.6142   -1.5052    0.0000 N   0  0  0  0  0  0  0  0  0  0  0  0
    1.7418   -1.0040    0.0000 C   0  0  0  0  0  0  0  0  0  0  0  0
    0.8704   -1.5127    0.0000 C   0  0  0  0  0  0  0  0  0  0  0  0
   -0.0014   -1.0090    0.0000 C   0  0  0  0  0  0  0  0  0  0  0  0
    0.0000    0.0000    0.0000 C   0  0  0  0  0  0  0  0  0  0  0  0
   -0.8662    0.4998    0.0000 O   0  0  0  0  0  0  0  0  0  0  0  0
    0.8682    0.5035    0.0000 C   0  0  0  0  0  0  0  0  0  0  0  0
    1.7408    0.0045    0.0000 C   0  0  0  0  0  0  0  0  0  0  0  0
    7.8357   -1.4818    0.0000 C   0  0  0  0  0  0  0  0  0  0  0  0
    7.1974   -2.2516    0.0000 O   0  0  0  0  0  0  0  0  0  0  0  0
    8.4829   -2.2441    0.0000 C   0  0  0  0  0  0  0  0  0  0  0  0
    8.1463   -3.1858    0.0000 C   0  0  0  0  0  0  0  0  0  0  0  0
    8.7062   -0.9726    0.0000 C   0  0  0  0  0  0  0  0  0  0  0  0
    9.5760   -1.4660    0.0000 O   0  0  0  0  0  0  0  0  0  0  0  0
    8.6966    0.0402    0.0000 O   0  0  0  0  0  0  0  0  0  0  0  0
    7.8213    0.5337    0.0000 C   0  0  0  0  0  0  0  0  0  0  0  0
  1  2  1  0
  2  3  1  0
  3 21  2  0
  3  4  1  0
  4 13  2  0
  4  5  1  0
  5  6  1  0
  6 12  1  0
  6  7  1  0
  7  8  2  0
  7  9  1  0
  9 29  1  0
  9 10  2  0
 10 11  1  0
 11 12  2  0
 12 13  1  0
 13 14  1  0
 14 15  2  0
 15 21  1  0
 15 16  1  0
 16 17  2  0
 17 18  1  0
 18 19  1  0
 18 20  2  0
 20 21  1  0
 10 22  1  0
 22 23  1  1
 22 24  1  0
 24 25  1  0
 22 26  1  0
 26 27  2  0
 26 28  1  0
 28 29  1  0
M  END
>  <SMILES>  (491) 
CCc1c2c(nc3ccc(O)cc13)-c1cc3c(c(=O)n1C2)COC(=O)[C@]3(O)CC

>  <CollectionName>  (491) 
chembl

>  <LOG PLASMA PROTEIN BINDING (RAT) (% unbound)>  (491) 
0.976808337338

>  <Internal ID>  (491) 


>  <Source>  (491) 
AstraZeneca

$$$$
CHEMBL2010836
     RDKit          2D

 33 36  0  0  0  0  0  0  0  0999 V2000
    0.8660   -1.5000    0.0000 C   0  0  0  0  0  0  0  0  0  0  0  0
    0.0000   -1.0000    0.0000 N   0  0  0  0  0  0  0  0  0  0  0  0
    0.0000    0.0000    0.0000 C   0  0  0  0  0  0  0  0  0  0  0  0
   -0.8675    0.4975    0.0000 C   0  0  0  0  0  0  0  0  0  0  0  0
   -0.8675    1.5027    0.0000 C   0  0  0  0  0  0  0  0  0  0  0  0
   -0.0000    2.0104    0.0000 N   0  0  0  0  0  0  0  0  0  0  0  0
   -0.0000    3.0104    0.0000 C   0  0  0  0  0  0  0  0  0  0  0  0
    0.8660    3.5104    0.0000 C   0  0  0  0  0  0  0  0  0  0  0  0
    1.7328    3.0116    0.0000 C   0  0  0  0  0  0  0  0  0  0  0  0
    2.6010    3.5079    0.0000 C   0  0  0  0  0  0  0  0  0  0  0  0
    2.6025    4.5131    0.0000 C   0  0  0  0  0  0  0  0  0  0  0  0
    1.7357    5.0220    0.0000 C   0  0  0  0  0  0  0  0  0  0  0  0
    0.8675    4.5156    0.0000 C   0  0  0  0  0  0  0  0  0  0  0  0
    3.4707    5.0093    0.0000 C   0  0  0  0  0  0  0  0  0  0  0  0
    2.9745    5.8775    0.0000 F   0  0  0  0  0  0  0  0  0  0  0  0
    3.9669    4.1410    0.0000 F   0  0  0  0  0  0  0  0  0  0  0  0
    4.3389    5.5054    0.0000 F   0  0  0  0  0  0  0  0  0  0  0  0
    0.8675    1.5027    0.0000 C   0  0  0  0  0  0  0  0  0  0  0  0
    0.8675    0.4975    0.0000 C   0  0  0  0  0  0  0  0  0  0  0  0
   -0.8660   -1.5000    0.0000 C   0  0  0  0  0  0  0  0  0  0  0  0
   -1.7321   -1.0000    0.0000 O   0  0  0  0  0  0  0  0  0  0  0  0
   -0.8660   -2.5000    0.0000 C   0  0  0  0  0  0  0  0  0  0  0  0
   -1.7321   -3.0000    0.0000 C   0  0  0  0  0  0  0  0  0  0  0  0
   -2.5988   -2.5012    0.0000 C   0  0  0  0  0  0  0  0  0  0  0  0
   -3.4670   -2.9975    0.0000 C   0  0  0  0  0  0  0  0  0  0  0  0
   -3.4685   -4.0027    0.0000 C   0  0  0  0  0  0  0  0  0  0  0  0
   -2.6017   -4.5116    0.0000 C   0  0  0  0  0  0  0  0  0  0  0  0
   -1.7335   -4.0052    0.0000 C   0  0  0  0  0  0  0  0  0  0  0  0
   -4.3367   -4.4989    0.0000 N   0  0  0  0  0  0  0  0  0  0  0  0
   -5.2496   -4.0897    0.0000 C   0  0  0  0  0  0  0  0  0  0  0  0
   -5.9250   -4.8270    0.0000 N   0  0  0  0  0  0  0  0  0  0  0  0
   -5.4294   -5.6973    0.0000 N   0  0  0  0  0  0  0  0  0  0  0  0
   -4.4480   -5.4973    0.0000 N   0  0  0  0  0  0  0  0  0  0  0  0
  1  2  1  0
  2  3  1  0
  3 19  1  0
  3  4  1  0
  4  5  1  0
  5  6  1  0
  6  7  1  0
  7  8  1  0
  8 13  1  0
  8  9  2  0
  9 10  1  0
 10 11  2  0
 11 12  1  0
 12 13  2  0
 11 14  1  0
 14 15  1  0
 14 16  1  0
 14 17  1  0
  6 18  1  0
 18 19  1  0
  2 20  1  0
 20 21  2  0
 20 22  1  0
 22 23  1  0
 23 28  1  0
 23 24  2  0
 24 25  1  0
 25 26  2  0
 26 27  1  0
 27 28  2  0
 26 29  1  0
 29 33  1  0
 29 30  1  0
 30 31  2  0
 31 32  1  0
 32 33  2  0
M  END
>  <SMILES>  (492) 
CN(C(=O)Cc1ccc(-n2cnnn2)cc1)C1CCN(Cc2ccc(C(F)(F)F)cc2)CC1

>  <CollectionName>  (492) 
chembl

>  <LOG PLASMA PROTEIN BINDING (RAT) (% unbound)>  (492) 
0.782472624166

>  <Internal ID>  (492) 


>  <Source>  (492) 
AstraZeneca

$$$$
CHEMBL192
     RDKit          2D

 33 36  0  0  0  0  0  0  0  0999 V2000
    3.4219   -3.9364    0.0000 C   0  0  0  0  0  0  0  0  0  0  0  0
    3.1129   -2.9853    0.0000 C   0  0  0  0  0  0  0  0  0  0  0  0
    2.1348   -2.7774    0.0000 C   0  0  0  0  0  0  0  0  0  0  0  0
    1.8258   -1.8263    0.0000 C   0  0  0  0  0  0  0  0  0  0  0  0
    2.4178   -1.0115    0.0000 N   0  0  0  0  0  0  0  0  0  0  0  0
    1.8258   -0.1969    0.0000 N   0  0  0  0  0  0  0  0  0  0  0  0
    2.1349    0.7541    0.0000 C   0  0  0  0  0  0  0  0  0  0  0  0
    0.8680   -0.5079    0.0000 C   0  0  0  0  0  0  0  0  0  0  0  0
    0.0000    0.0000    0.0000 C   0  0  0  0  0  0  0  0  0  0  0  0
    0.0000    1.0000    0.0000 O   0  0  0  0  0  0  0  0  0  0  0  0
   -0.8680   -0.5079    0.0000 N   0  0  0  0  0  0  0  0  0  0  0  0
   -0.8680   -1.5137    0.0000 C   0  0  0  0  0  0  0  0  0  0  0  0
    0.0000   -2.0116    0.0000 N   0  0  0  0  0  0  0  0  0  0  0  0
    0.8680   -1.5150    0.0000 C   0  0  0  0  0  0  0  0  0  0  0  0
   -1.7333   -2.0149    0.0000 C   0  0  0  0  0  0  0  0  0  0  0  0
   -2.6030   -1.5110    0.0000 C   0  0  0  0  0  0  0  0  0  0  0  0
   -3.4683   -2.0225    0.0000 C   0  0  0  0  0  0  0  0  0  0  0  0
   -3.4639   -3.0277    0.0000 C   0  0  0  0  0  0  0  0  0  0  0  0
   -2.5943   -3.5214    0.0000 C   0  0  0  0  0  0  0  0  0  0  0  0
   -1.7289   -3.0201    0.0000 C   0  0  0  0  0  0  0  0  0  0  0  0
   -0.8615   -3.5176    0.0000 O   0  0  0  0  0  0  0  0  0  0  0  0
    0.0031   -3.0151    0.0000 C   0  0  0  0  0  0  0  0  0  0  0  0
    0.8706   -3.5126    0.0000 C   0  0  0  0  0  0  0  0  0  0  0  0
   -4.3380   -1.5288    0.0000 S   0  0  0  0  0  0  0  0  0  0  0  0
   -4.8316   -2.3985    0.0000 O   0  0  0  0  0  0  0  0  0  0  0  0
   -3.8443   -0.6591    0.0000 O   0  0  0  0  0  0  0  0  0  0  0  0
   -5.2076   -1.0351    0.0000 N   0  0  0  0  0  0  0  0  0  0  0  0
   -5.2209   -0.0301    0.0000 C   0  0  0  0  0  0  0  0  0  0  0  0
   -6.0951    0.4661    0.0000 C   0  0  0  0  0  0  0  0  0  0  0  0
   -6.9560   -0.0427    0.0000 N   0  0  0  0  0  0  0  0  0  0  0  0
   -7.8256    0.4510    0.0000 C   0  0  0  0  0  0  0  0  0  0  0  0
   -6.9516   -1.0427    0.0000 C   0  0  0  0  0  0  0  0  0  0  0  0
   -6.0774   -1.5389    0.0000 C   0  0  0  0  0  0  0  0  0  0  0  0
  1  2  1  0
  2  3  1  0
  3  4  1  0
  4 14  1  0
  4  5  2  0
  5  6  1  0
  6  7  1  0
  6  8  1  0
  8 14  2  0
  8  9  1  0
  9 10  2  0
  9 11  1  0
 11 12  1  0
 12 13  2  0
 13 14  1  0
 12 15  1  0
 15 20  1  0
 15 16  2  0
 16 17  1  0
 17 18  2  0
 18 19  1  0
 19 20  2  0
 20 21  1  0
 21 22  1  0
 22 23  1  0
 17 24  1  0
 24 25  2  0
 24 26  2  0
 24 27  1  0
 27 33  1  0
 27 28  1  0
 28 29  1  0
 29 30  1  0
 30 31  1  0
 30 32  1  0
 32 33  1  0
M  END
>  <SMILES>  (493) 
CCCc1nn(C)c2c(=O)[nH]c(-c3cc(S(=O)(=O)N4CCN(C)CC4)ccc3OCC)nc12

>  <CollectionName>  (493) 
chembl

>  <LOG PLASMA PROTEIN BINDING (RAT) (% unbound)>  (493) 
0.994756944588

>  <Internal ID>  (493) 


>  <Source>  (493) 
AstraZeneca

$$$$
CHEMBL260091
     RDKit          2D

 32 34  0  0  1  0  0  0  0  0999 V2000
   -8.7093   -8.9608    0.0000 C   0  0  0  0  0  0  0  0  0  0  0  0
   -7.8389   -8.4684    0.0000 C   0  0  0  0  0  0  0  0  0  0  0  0
   -6.9773   -8.9760    0.0000 O   0  0  0  0  0  0  0  0  0  0  0  0
   -7.8301   -7.4684    0.0000 C   0  0  0  0  0  0  0  0  0  0  0  0
   -6.9597   -6.9761    0.0000 N   0  0  0  0  0  0  0  0  0  0  0  0
   -6.9509   -5.9761    0.0000 C   0  0  0  0  0  0  0  0  0  0  0  0
   -7.8125   -5.4685    0.0000 O   0  0  0  0  0  0  0  0  0  0  0  0
   -6.0805   -5.4838    0.0000 C   0  0  0  0  0  0  0  0  0  0  0  0
   -6.0746   -4.4786    0.0000 C   0  0  0  0  0  0  0  0  0  0  0  0
   -5.2042   -3.9862    0.0000 C   0  0  0  0  0  0  0  0  0  0  0  0
   -4.3396   -4.4887    0.0000 C   0  0  0  0  0  0  0  0  0  0  0  0
   -4.3455   -5.4939    0.0000 C   0  0  0  0  0  0  0  0  0  0  0  0
   -5.2160   -5.9965    0.0000 C   0  0  0  0  0  0  0  0  0  0  0  0
   -3.4714   -3.9926    0.0000 C   0  0  0  0  0  0  0  0  0  0  0  0
   -2.6032   -3.4964    0.0000 C   0  0  0  0  0  0  0  0  0  0  0  0
   -1.7350   -3.0002    0.0000 C   0  0  0  0  0  0  0  0  0  0  0  0
   -1.7335   -1.9950    0.0000 C   0  0  0  0  0  0  0  0  0  0  0  0
   -0.8653   -1.4987    0.0000 C   0  0  0  0  0  0  0  0  0  0  0  0
    0.0015   -1.9975    0.0000 C   0  0  0  0  0  0  0  0  0  0  0  0
    0.8675   -1.4975    0.0000 C   0  0  0  0  0  0  0  0  0  0  0  0
    0.8675   -0.4975    0.0000 N   0  0  0  0  0  0  0  0  0  0  0  0
    0.0000    0.0000    0.0000 C   0  0  0  0  0  0  0  0  0  0  0  0
    0.0000    1.0052    0.0000 C   0  0  0  0  0  0  0  0  0  0  0  0
    0.8675    1.5129    0.0000 O   0  0  0  0  0  0  0  0  0  0  0  0
    1.7350    1.0052    0.0000 C   0  0  0  0  0  0  0  0  0  0  0  0
    1.7350    0.0000    0.0000 C   0  0  0  0  0  0  0  0  0  0  0  0
    0.0000   -3.0027    0.0000 C   0  0  0  0  0  0  0  0  0  0  0  0
   -0.8682   -3.5091    0.0000 C   0  0  0  0  0  0  0  0  0  0  0  0
   -8.6917   -6.9608    0.0000 C   0  0  0  0  0  0  0  0  0  0  0  0
   -8.6829   -5.9609    0.0000 O   0  0  0  0  0  0  0  0  0  0  0  0
   -9.5621   -7.4532    0.0000 N   0  0  0  0  0  0  0  0  0  0  0  0
  -10.4237   -6.9456    0.0000 O   0  0  0  0  0  0  0  0  0  0  0  0
  2  1  1  6
  2  3  1  0
  2  4  1  0
  4  5  1  1
  5  6  1  0
  6  7  2  0
  6  8  1  0
  8 13  2  0
  8  9  1  0
  9 10  2  0
 10 11  1  0
 11 12  2  0
 12 13  1  0
 11 14  1  0
 14 15  3  0
 15 16  1  0
 16 28  1  0
 16 17  2  0
 17 18  1  0
 18 19  2  0
 19 20  1  0
 20 21  1  0
 21 26  1  0
 21 22  1  0
 22 23  1  0
 23 24  1  0
 24 25  1  0
 25 26  1  0
 19 27  1  0
 27 28  2  0
  4 29  1  0
 29 30  2  0
 29 31  1  0
 31 32  1  0
M  END
>  <SMILES>  (494) 
C[C@@H](O)[C@H](NC(=O)c1ccc(C#Cc2ccc(CN3CCOCC3)cc2)cc1)C(=O)NO

>  <CollectionName>  (494) 
chembl

>  <LOG PLASMA PROTEIN BINDING (RAT) (% unbound)>  (494) 
0.801403710017

>  <Internal ID>  (494) 


>  <Source>  (494) 
AstraZeneca

$$$$
CHEMBL262273
     RDKit          2D

 24 25  0  0  1  0  0  0  0  0999 V2000
    0.6049    8.0487    0.0000 C   0  0  0  0  0  0  0  0  0  0  0  0
   -0.3951    8.0427    0.0000 C   0  0  0  0  0  0  0  0  0  0  0  0
   -1.3951    8.0368    0.0000 O   0  0  0  0  0  0  0  0  0  0  0  0
   -0.3892    7.0428    0.0000 C   0  0  0  0  0  0  0  0  0  0  0  0
   -1.2522    6.5376    0.0000 O   0  0  0  0  0  0  0  0  0  0  0  0
    0.4798    6.5479    0.0000 N   0  0  0  0  0  0  0  0  0  0  0  0
    0.4857    5.5479    0.0000 C   0  0  0  0  0  0  0  0  0  0  0  0
   -0.3766    5.0415    0.0000 C   0  0  0  0  0  0  0  0  0  0  0  0
   -0.3750    4.0415    0.0000 C   0  0  0  0  0  0  0  0  0  0  0  0
    0.4977    3.5428    0.0000 C   0  0  0  0  0  0  0  0  0  0  0  0
    1.3689    4.0441    0.0000 C   0  0  0  0  0  0  0  0  0  0  0  0
    1.3585    5.0492    0.0000 C   0  0  0  0  0  0  0  0  0  0  0  0
    0.4993    2.5428    0.0000 S   0  0  0  0  0  0  0  0  0  0  0  0
    1.4993    2.5443    0.0000 O   0  0  0  0  0  0  0  0  0  0  0  0
   -0.5007    2.5413    0.0000 O   0  0  0  0  0  0  0  0  0  0  0  0
    0.5008    1.5428    0.0000 N   0  0  0  0  0  0  0  0  0  0  0  0
   -0.3065    0.9519    0.0000 C   0  0  0  0  0  0  0  0  0  0  0  0
    0.0000    0.0000    0.0000 C   0  0  0  0  0  0  0  0  0  0  0  0
    1.0015    0.0000    0.0000 C   0  0  0  0  0  0  0  0  0  0  0  0
    1.3133    0.9519    0.0000 C   0  0  0  0  0  0  0  0  0  0  0  0
   -0.4010    9.0427    0.0000 C   0  0  0  0  0  0  0  0  0  0  0  0
   -1.4010    9.0368    0.0000 F   0  0  0  0  0  0  0  0  0  0  0  0
    0.5989    9.0487    0.0000 F   0  0  0  0  0  0  0  0  0  0  0  0
   -0.4070   10.0427    0.0000 F   0  0  0  0  0  0  0  0  0  0  0  0
  1  2  1  0
  2  3  1  0
  2  4  1  0
  4  5  2  0
  4  6  1  0
  6  7  1  0
  7 12  2  0
  7  8  1  0
  8  9  2  0
  9 10  1  0
 10 11  2  0
 11 12  1  0
 10 13  1  0
 13 14  2  0
 13 15  2  0
 13 16  1  0
 16 20  1  0
 16 17  1  0
 17 18  1  0
 18 19  1  0
 19 20  1  0
  2 21  1  0
 21 22  1  0
 21 23  1  0
 21 24  1  0
M  END
>  <SMILES>  (495) 
CC(O)(C(=O)Nc1ccc(S(=O)(=O)N2CCCC2)cc1)C(F)(F)F

>  <CollectionName>  (495) 
chembl

>  <LOG PLASMA PROTEIN BINDING (RAT) (% unbound)>  (495) 
1.07518185462

>  <Internal ID>  (495) 


>  <Source>  (495) 
AstraZeneca

$$$$
CHEMBL184
     RDKit          2D

 16 17  0  0  0  0  0  0  0  0999 V2000
   -1.7333   -2.0149    0.0000 N   0  0  0  0  0  0  0  0  0  0  0  0
   -0.8680   -1.5137    0.0000 C   0  0  0  0  0  0  0  0  0  0  0  0
   -0.8680   -0.5079    0.0000 N   0  0  0  0  0  0  0  0  0  0  0  0
    0.0000    0.0000    0.0000 C   0  0  0  0  0  0  0  0  0  0  0  0
    0.0000    1.0000    0.0000 O   0  0  0  0  0  0  0  0  0  0  0  0
    0.8680   -0.5079    0.0000 C   0  0  0  0  0  0  0  0  0  0  0  0
    1.8258   -0.1969    0.0000 N   0  0  0  0  0  0  0  0  0  0  0  0
    2.4178   -1.0115    0.0000 C   0  0  0  0  0  0  0  0  0  0  0  0
    1.8258   -1.8263    0.0000 N   0  0  0  0  0  0  0  0  0  0  0  0
    2.1348   -2.7774    0.0000 C   0  0  0  0  0  0  0  0  0  0  0  0
    1.4656   -3.5205    0.0000 O   0  0  0  0  0  0  0  0  0  0  0  0
    1.7746   -4.4716    0.0000 C   0  0  0  0  0  0  0  0  0  0  0  0
    1.1054   -5.2147    0.0000 C   0  0  0  0  0  0  0  0  0  0  0  0
    1.4144   -6.1657    0.0000 O   0  0  0  0  0  0  0  0  0  0  0  0
    0.8680   -1.5150    0.0000 C   0  0  0  0  0  0  0  0  0  0  0  0
    0.0000   -2.0116    0.0000 N   0  0  0  0  0  0  0  0  0  0  0  0
  1  2  1  0
  2 16  2  0
  2  3  1  0
  3  4  2  0
  4  5  1  0
  4  6  1  0
  6 15  2  0
  6  7  1  0
  7  8  2  0
  8  9  1  0
  9 10  1  0
 10 11  1  0
 11 12  1  0
 12 13  1  0
 13 14  1  0
  9 15  1  0
 15 16  1  0
M  END
>  <SMILES>  (496) 
Nc1nc(O)c2ncn(COCCO)c2n1

>  <CollectionName>  (496) 
chembl

>  <LOG PLASMA PROTEIN BINDING (RAT) (% unbound)>  (496) 
1.95380799767

>  <Internal ID>  (496) 


>  <Source>  (496) 
AstraZeneca

$$$$
CHEMBL247828
     RDKit          2D

 39 41  0  0  1  0  0  0  0  0999 V2000
    0.9228    2.7982    0.0000 C   0  0  0  0  0  0  0  0  0  0  0  0
    1.6540    2.1161    0.0000 C   0  0  0  0  0  0  0  0  0  0  0  0
    2.6104    2.4084    0.0000 C   0  0  0  0  0  0  0  0  0  0  0  0
    1.4290    1.1418    0.0000 N   0  0  0  0  0  0  0  0  0  0  0  0
    0.4384    0.9159    0.0000 C   0  0  0  0  0  0  0  0  0  0  0  0
   -0.1859    1.6971    0.0000 O   0  0  0  0  0  0  0  0  0  0  0  0
    0.0000    0.0000    0.0000 C   0  0  0  0  0  0  0  0  0  0  0  0
    0.4360   -0.9143    0.0000 C   0  0  0  0  0  0  0  0  0  0  0  0
    1.4241   -1.1362    0.0000 C   0  0  0  0  0  0  0  0  0  0  0  0
    2.2192   -0.5026    0.0000 C   0  0  0  0  0  0  0  0  0  0  0  0
    3.0837   -1.0052    0.0000 C   0  0  0  0  0  0  0  0  0  0  0  0
    3.9567   -0.5076    0.0000 C   0  0  0  0  0  0  0  0  0  0  0  0
    3.9596    0.4979    0.0000 C   0  0  0  0  0  0  0  0  0  0  0  0
    3.0895    1.0060    0.0000 C   0  0  0  0  0  0  0  0  0  0  0  0
    2.2220    0.5029    0.0000 C   0  0  0  0  0  0  0  0  0  0  0  0
   -1.0000    0.0007    0.0000 N   0  0  0  0  0  0  0  0  0  0  0  0
   -1.5006   -0.8649    0.0000 C   0  0  0  0  0  0  0  0  0  0  0  0
   -1.0013   -1.7313    0.0000 O   0  0  0  0  0  0  0  0  0  0  0  0
   -2.5006   -0.8642    0.0000 C   0  0  0  0  0  0  0  0  0  0  0  0
   -3.0013   -1.7299    0.0000 C   0  0  0  0  0  0  0  0  0  0  0  0
   -2.5019   -2.5963    0.0000 C   0  0  0  0  0  0  0  0  0  0  0  0
   -1.5019   -2.5984    0.0000 C   0  0  0  0  0  0  0  0  0  0  0  0
   -0.9987   -3.4627    0.0000 C   0  0  0  0  0  0  0  0  0  0  0  0
   -1.5007   -4.3336    0.0000 C   0  0  0  0  0  0  0  0  0  0  0  0
   -2.5058   -4.3402    0.0000 C   0  0  0  0  0  0  0  0  0  0  0  0
   -3.0039   -3.4671    0.0000 C   0  0  0  0  0  0  0  0  0  0  0  0
   -4.0039   -3.4649    0.0000 O   0  0  0  0  0  0  0  0  0  0  0  0
   -4.5058   -4.3298    0.0000 C   0  0  0  0  0  0  0  0  0  0  0  0
   -3.6409   -4.8318    0.0000 F   0  0  0  0  0  0  0  0  0  0  0  0
   -5.3707   -3.8279    0.0000 F   0  0  0  0  0  0  0  0  0  0  0  0
   -5.0077   -5.1947    0.0000 F   0  0  0  0  0  0  0  0  0  0  0  0
   -3.0000    0.0022    0.0000 N   0  0  0  0  0  0  0  0  0  0  0  0
   -4.0000    0.0029    0.0000 C   0  0  0  0  0  0  0  0  0  0  0  0
   -4.5006   -0.8628    0.0000 O   0  0  0  0  0  0  0  0  0  0  0  0
   -4.4994    0.8693    0.0000 O   0  0  0  0  0  0  0  0  0  0  0  0
   -5.4994    0.8700    0.0000 C   0  0  0  0  0  0  0  0  0  0  0  0
   -6.4994    0.8708    0.0000 C   0  0  0  0  0  0  0  0  0  0  0  0
   -5.5001   -0.1300    0.0000 C   0  0  0  0  0  0  0  0  0  0  0  0
   -5.4986    1.8700    0.0000 C   0  0  0  0  0  0  0  0  0  0  0  0
  1  2  1  0
  2  3  1  0
  2  4  1  0
  4 15  1  0
  4  5  1  0
  5  6  2  0
  5  7  1  0
  7  8  1  0
  8  9  1  0
  9 10  1  0
 10 15  2  0
 10 11  1  0
 11 12  2  0
 12 13  1  0
 13 14  2  0
 14 15  1  0
  7 16  1  1
 16 17  1  0
 17 18  2  0
 19 17  1  0
 19 20  1  1
 20 21  1  0
 21 26  1  0
 21 22  2  0
 22 23  1  0
 23 24  2  0
 24 25  1  0
 25 26  2  0
 26 27  1  0
 27 28  1  0
 28 29  1  0
 28 30  1  0
 28 31  1  0
 19 32  1  0
 32 33  1  0
 33 34  2  0
 33 35  1  0
 35 36  1  0
 36 37  1  0
 36 38  1  0
 36 39  1  0
M  END
>  <SMILES>  (497) 
CC(C)N1C(=O)[C@H](NC(=O)[C@@H](Cc2ccccc2OC(F)(F)F)NC(=O)OC(C)(C)C)CCc2ccccc21

>  <CollectionName>  (497) 
chembl

>  <LOG PLASMA PROTEIN BINDING (RAT) (% unbound)>  (497) 
-0.52287874528

>  <Internal ID>  (497) 


>  <Source>  (497) 
AstraZeneca

$$$$
CHEMBL255044
     RDKit          2D

 22 23  0  0  0  0  0  0  0  0999 V2000
    5.1969   -0.0088    0.0000 C   0  0  0  0  0  0  0  0  0  0  0  0
    4.3316    0.4925    0.0000 C   0  0  0  0  0  0  0  0  0  0  0  0
    3.4648   -0.0063    0.0000 O   0  0  0  0  0  0  0  0  0  0  0  0
    2.5995    0.4950    0.0000 C   0  0  0  0  0  0  0  0  0  0  0  0
    2.6010    1.4950    0.0000 O   0  0  0  0  0  0  0  0  0  0  0  0
    1.7328   -0.0038    0.0000 N   0  0  0  0  0  0  0  0  0  0  0  0
    0.8675    0.4975    0.0000 C   0  0  0  0  0  0  0  0  0  0  0  0
    0.0000    0.0000    0.0000 C   0  0  0  0  0  0  0  0  0  0  0  0
   -0.8675    0.4975    0.0000 C   0  0  0  0  0  0  0  0  0  0  0  0
   -0.8675    1.5027    0.0000 C   0  0  0  0  0  0  0  0  0  0  0  0
   -1.7350    2.0001    0.0000 N   0  0  0  0  0  0  0  0  0  0  0  0
   -2.5995    1.4976    0.0000 C   0  0  0  0  0  0  0  0  0  0  0  0
   -3.4670    1.9950    0.0000 C   0  0  0  0  0  0  0  0  0  0  0  0
   -3.4714    2.9951    0.0000 C   0  0  0  0  0  0  0  0  0  0  0  0
   -4.3368    3.4963    0.0000 C   0  0  0  0  0  0  0  0  0  0  0  0
   -5.2066    2.9924    0.0000 C   0  0  0  0  0  0  0  0  0  0  0  0
   -6.0719    3.4936    0.0000 F   0  0  0  0  0  0  0  0  0  0  0  0
   -5.2110    1.9872    0.0000 C   0  0  0  0  0  0  0  0  0  0  0  0
   -4.3368    1.4911    0.0000 C   0  0  0  0  0  0  0  0  0  0  0  0
   -0.0000    2.0104    0.0000 N   0  0  0  0  0  0  0  0  0  0  0  0
    0.8675    1.5027    0.0000 C   0  0  0  0  0  0  0  0  0  0  0  0
    1.7350    2.0001    0.0000 N   0  0  0  0  0  0  0  0  0  0  0  0
  1  2  1  0
  2  3  1  0
  3  4  1  0
  4  5  2  0
  4  6  1  0
  6  7  1  0
  7 21  2  0
  7  8  1  0
  8  9  2  0
  9 10  1  0
 10 11  1  0
 11 12  1  0
 12 13  1  0
 13 19  1  0
 13 14  2  0
 14 15  1  0
 15 16  2  0
 16 17  1  0
 16 18  1  0
 18 19  2  0
 10 20  2  0
 20 21  1  0
 21 22  1  0
M  END
>  <SMILES>  (498) 
CCOC(=O)Nc1ccc(NCc2ccc(F)cc2)nc1N

>  <CollectionName>  (498) 
chembl

>  <LOG PLASMA PROTEIN BINDING (RAT) (% unbound)>  (498) 
1.34222522936

>  <Internal ID>  (498) 


>  <Source>  (498) 
AstraZeneca

$$$$
CHEMBL223166
     RDKit          2D

 22 24  0  0  1  0  0  0  0  0999 V2000
    2.6091    5.5065    0.0000 C   0  0  0  0  0  0  0  0  0  0  0  0
    2.6076    4.5065    0.0000 O   0  0  0  0  0  0  0  0  0  0  0  0
    3.4729    4.0053    0.0000 C   0  0  0  0  0  0  0  0  0  0  0  0
    4.3404    4.5028    0.0000 C   0  0  0  0  0  0  0  0  0  0  0  0
    5.2079    4.0053    0.0000 C   0  0  0  0  0  0  0  0  0  0  0  0
    5.2079    3.0001    0.0000 C   0  0  0  0  0  0  0  0  0  0  0  0
    4.3404    2.4924    0.0000 C   0  0  0  0  0  0  0  0  0  0  0  0
    3.4729    3.0001    0.0000 C   0  0  0  0  0  0  0  0  0  0  0  0
    2.6054    2.5026    0.0000 O   0  0  0  0  0  0  0  0  0  0  0  0
    2.6025    1.5026    0.0000 C   0  0  0  0  0  0  0  0  0  0  0  0
    1.7350    1.0052    0.0000 C   0  0  0  0  0  0  0  0  0  0  0  0
    1.7350    0.0000    0.0000 C   0  0  0  0  0  0  0  0  0  0  0  0
    0.8675   -0.4975    0.0000 N   0  0  0  0  0  0  0  0  0  0  0  0
    0.0000    0.0000    0.0000 C   0  0  0  0  0  0  0  0  0  0  0  0
    0.0000    1.0052    0.0000 C   0  0  0  0  0  0  0  0  0  0  0  0
    0.8675    1.5129    0.0000 O   0  0  0  0  0  0  0  0  0  0  0  0
    3.4670    1.0001    0.0000 C   0  0  0  0  0  0  0  0  0  0  0  0
    4.3376    1.5027    0.0000 C   0  0  0  0  0  0  0  0  0  0  0  0
    5.2022    1.0002    0.0000 C   0  0  0  0  0  0  0  0  0  0  0  0
    5.2051    0.0001    0.0000 C   0  0  0  0  0  0  0  0  0  0  0  0
    4.3345   -0.5025    0.0000 C   0  0  0  0  0  0  0  0  0  0  0  0
    3.4611   -0.0050    0.0000 C   0  0  0  0  0  0  0  0  0  0  0  0
  1  2  1  0
  2  3  1  0
  3  8  2  0
  3  4  1  0
  4  5  2  0
  5  6  1  0
  6  7  2  0
  7  8  1  0
  8  9  1  0
 10  9  1  1
 10 11  1  0
 11 16  1  0
 11 12  1  6
 12 13  1  0
 13 14  1  0
 14 15  1  0
 15 16  1  0
 10 17  1  0
 17 22  1  0
 17 18  2  0
 18 19  1  0
 19 20  2  0
 20 21  1  0
 21 22  2  0
M  END
>  <SMILES>  (499) 
COc1ccccc1O[C@@H](c1ccccc1)[C@@H]1CNCCO1

>  <CollectionName>  (499) 
chembl

>  <LOG PLASMA PROTEIN BINDING (RAT) (% unbound)>  (499) 
1.88541776511

>  <Internal ID>  (499) 


>  <Source>  (499) 
AstraZeneca

$$$$
CHEMBL1945034
     RDKit          2D

 33 36  0  0  1  0  0  0  0  0999 V2000
    1.7340    3.0138    0.0000 O   0  0  0  0  0  0  0  0  0  0  0  0
    0.8680    2.5138    0.0000 C   0  0  0  0  0  0  0  0  0  0  0  0
    0.0020    3.0138    0.0000 C   0  0  0  0  0  0  0  0  0  0  0  0
    0.0020    4.0138    0.0000 N   0  0  0  0  0  0  0  0  0  0  0  0
   -0.8641    4.5138    0.0000 C   0  0  0  0  0  0  0  0  0  0  0  0
   -0.8641    5.5138    0.0000 C   0  0  0  0  0  0  0  0  0  0  0  0
   -1.7301    6.0138    0.0000 C   0  0  0  0  0  0  0  0  0  0  0  0
   -1.7315    7.0138    0.0000 C   0  0  0  0  0  0  0  0  0  0  0  0
   -2.5954    7.5176    0.0000 C   0  0  0  0  0  0  0  0  0  0  0  0
   -3.4667    7.0163    0.0000 C   0  0  0  0  0  0  0  0  0  0  0  0
   -4.3305    7.5201    0.0000 C   0  0  0  0  0  0  0  0  0  0  0  0
   -4.3261    8.5201    0.0000 N   0  0  0  0  0  0  0  0  0  0  0  0
   -5.1899    9.0239    0.0000 C   0  0  0  0  0  0  0  0  0  0  0  0
   -5.1855   10.0239    0.0000 C   0  0  0  0  0  0  0  0  0  0  0  0
   -6.0493   10.5277    0.0000 C   0  0  0  0  0  0  0  0  0  0  0  0
   -6.9206   10.0263    0.0000 C   0  0  0  0  0  0  0  0  0  0  0  0
   -7.7844   10.5301    0.0000 C   0  0  0  0  0  0  0  0  0  0  0  0
   -7.7859   11.5302    0.0000 C   0  0  0  0  0  0  0  0  0  0  0  0
   -6.9146   12.0315    0.0000 C   0  0  0  0  0  0  0  0  0  0  0  0
   -6.0419   11.5328    0.0000 N   0  0  0  0  0  0  0  0  0  0  0  0
   -3.4740    6.0112    0.0000 C   0  0  0  0  0  0  0  0  0  0  0  0
   -2.6013    5.5125    0.0000 C   0  0  0  0  0  0  0  0  0  0  0  0
    0.8680    1.5138    0.0000 C   0  0  0  0  0  0  0  0  0  0  0  0
    0.0000    1.0058    0.0000 C   0  0  0  0  0  0  0  0  0  0  0  0
    0.0000    0.0000    0.0000 C   0  0  0  0  0  0  0  0  0  0  0  0
    0.8680   -0.4978    0.0000 C   0  0  0  0  0  0  0  0  0  0  0  0
    0.8675   -1.4978    0.0000 O   0  0  0  0  0  0  0  0  0  0  0  0
    1.7360   -0.0012    0.0000 C   0  0  0  0  0  0  0  0  0  0  0  0
    2.6938   -0.3125    0.0000 N   0  0  0  0  0  0  0  0  0  0  0  0
    3.2858    0.5023    0.0000 C   0  0  0  0  0  0  0  0  0  0  0  0
    4.2858    0.5024    0.0000 O   0  0  0  0  0  0  0  0  0  0  0  0
    2.6938    1.3169    0.0000 S   0  0  0  0  0  0  0  0  0  0  0  0
    1.7360    1.0058    0.0000 C   0  0  0  0  0  0  0  0  0  0  0  0
  2  1  1  6
  2  3  1  0
  3  4  1  0
  4  5  1  0
  5  6  1  0
  6  7  1  0
  7 22  1  0
  7  8  2  0
  8  9  1  0
  9 10  2  0
 10 11  1  0
 11 12  1  0
 12 13  1  0
 13 14  1  0
 14 15  1  0
 15 20  1  0
 15 16  2  0
 16 17  1  0
 17 18  2  0
 18 19  1  0
 19 20  2  0
 10 21  1  0
 21 22  2  0
  2 23  1  0
 23 33  1  0
 23 24  2  0
 24 25  1  0
 25 26  2  0
 26 27  1  0
 26 28  1  0
 28 33  2  0
 28 29  1  0
 29 30  1  0
 30 31  2  0
 30 32  1  0
 32 33  1  0
M  END
>  <SMILES>  (500) 
O=c1[nH]c2c(O)ccc([C@@H](O)CNCCc3ccc(CNCCc4ccccn4)cc3)c2s1

>  <CollectionName>  (500) 
chembl

>  <LOG PLASMA PROTEIN BINDING (RAT) (% unbound)>  (500) 
1.68367729882

>  <Internal ID>  (500) 


>  <Source>  (500) 
AstraZeneca

$$$$
CHEMBL1962896
     RDKit          2D

 38 40  0  0  0  0  0  0  0  0999 V2000
   -9.1020    1.8738    0.0000 C   0  0  0  0  0  0  0  0  0  0  0  0
   -8.6084    2.7435    0.0000 O   0  0  0  0  0  0  0  0  0  0  0  0
   -7.6084    2.7508    0.0000 C   0  0  0  0  0  0  0  0  0  0  0  0
   -7.1020    1.8825    0.0000 C   0  0  0  0  0  0  0  0  0  0  0  0
   -6.1020    1.8898    0.0000 C   0  0  0  0  0  0  0  0  0  0  0  0
   -5.6033    2.7566    0.0000 C   0  0  0  0  0  0  0  0  0  0  0  0
   -4.6033    2.7596    0.0000 C   0  0  0  0  0  0  0  0  0  0  0  0
   -4.1058    3.6271    0.0000 C   0  0  0  0  0  0  0  0  0  0  0  0
   -3.1058    3.6300    0.0000 C   0  0  0  0  0  0  0  0  0  0  0  0
   -2.6084    4.4975    0.0000 N   0  0  0  0  0  0  0  0  0  0  0  0
   -3.4759    4.9950    0.0000 C   0  0  0  0  0  0  0  0  0  0  0  0
   -2.1109    5.3650    0.0000 C   0  0  0  0  0  0  0  0  0  0  0  0
   -1.1110    5.3680    0.0000 C   0  0  0  0  0  0  0  0  0  0  0  0
   -0.6135    6.2355    0.0000 C   0  0  0  0  0  0  0  0  0  0  0  0
   -1.1161    7.1000    0.0000 C   0  0  0  0  0  0  0  0  0  0  0  0
   -0.6199    7.9683    0.0000 C   0  0  0  0  0  0  0  0  0  0  0  0
   -1.1187    8.8350    0.0000 C   0  0  0  0  0  0  0  0  0  0  0  0
   -2.1239    8.8335    0.0000 C   0  0  0  0  0  0  0  0  0  0  0  0
   -2.6226    9.7003    0.0000 O   0  0  0  0  0  0  0  0  0  0  0  0
   -2.1213   10.5655    0.0000 C   0  0  0  0  0  0  0  0  0  0  0  0
   -2.6303    7.9652    0.0000 C   0  0  0  0  0  0  0  0  0  0  0  0
   -2.1213    7.0985    0.0000 C   0  0  0  0  0  0  0  0  0  0  0  0
   -1.7409    4.0001    0.0000 C   0  0  0  0  0  0  0  0  0  0  0  0
   -1.7379    3.0001    0.0000 C   0  0  0  0  0  0  0  0  0  0  0  0
   -0.8704    2.5026    0.0000 N   0  0  0  0  0  0  0  0  0  0  0  0
   -0.8675    1.5026    0.0000 C   0  0  0  0  0  0  0  0  0  0  0  0
   -1.7320    1.0001    0.0000 O   0  0  0  0  0  0  0  0  0  0  0  0
    0.0000    1.0052    0.0000 C   0  0  0  0  0  0  0  0  0  0  0  0
    0.8675    1.5129    0.0000 N   0  0  0  0  0  0  0  0  0  0  0  0
    1.7350    1.0052    0.0000 C   0  0  0  0  0  0  0  0  0  0  0  0
    2.6025    1.5026    0.0000 Cl  0  0  0  0  0  0  0  0  0  0  0  0
    1.7350    0.0000    0.0000 C   0  0  0  0  0  0  0  0  0  0  0  0
    2.6003   -0.5013    0.0000 N   0  0  0  0  0  0  0  0  0  0  0  0
    0.8675   -0.4975    0.0000 N   0  0  0  0  0  0  0  0  0  0  0  0
    0.0000    0.0000    0.0000 C   0  0  0  0  0  0  0  0  0  0  0  0
   -0.8653   -0.5013    0.0000 N   0  0  0  0  0  0  0  0  0  0  0  0
   -6.1097    3.6249    0.0000 C   0  0  0  0  0  0  0  0  0  0  0  0
   -7.1148    3.6264    0.0000 C   0  0  0  0  0  0  0  0  0  0  0  0
  1  2  1  0
  2  3  1  0
  3 38  2  0
  3  4  1  0
  4  5  2  0
  5  6  1  0
  6  7  1  0
  7  8  1  0
  8  9  1  0
  9 10  1  0
 10 11  1  0
 10 12  1  0
 12 13  1  0
 13 14  1  0
 14 15  1  0
 15 22  1  0
 15 16  2  0
 16 17  1  0
 17 18  2  0
 18 19  1  0
 19 20  1  0
 18 21  1  0
 21 22  2  0
 10 23  1  0
 23 24  1  0
 24 25  1  0
 25 26  1  0
 26 27  2  0
 26 28  1  0
 28 35  1  0
 28 29  2  0
 29 30  1  0
 30 31  1  0
 30 32  2  0
 32 33  1  0
 32 34  1  0
 34 35  2  0
 35 36  1  0
  6 37  2  0
 37 38  1  0
M  CHG  1  10   1
M  END
>  <SMILES>  (501) 
COc1ccc(CCC[N+](C)(CCCc2ccc(OC)cc2)CCNC(=O)c2nc(Cl)c(N)nc2N)cc1

>  <CollectionName>  (501) 
chembl

>  <LOG PLASMA PROTEIN BINDING (RAT) (% unbound)>  (501) 
1.19589965241

>  <Internal ID>  (501) 


>  <Source>  (501) 
AstraZeneca

$$$$
CHEMBL714
     RDKit          2D

 17 17  0  0  1  0  0  0  0  0999 V2000
   -1.7438    5.0001    0.0000 C   0  0  0  0  0  0  0  0  0  0  0  0
   -1.7409    4.0001    0.0000 C   0  0  0  0  0  0  0  0  0  0  0  0
   -0.7409    4.0030    0.0000 C   0  0  0  0  0  0  0  0  0  0  0  0
   -2.7409    3.9971    0.0000 C   0  0  0  0  0  0  0  0  0  0  0  0
   -1.7379    3.0001    0.0000 N   0  0  0  0  0  0  0  0  0  0  0  0
   -0.8704    2.5026    0.0000 C   0  0  0  0  0  0  0  0  0  0  0  0
   -0.8675    1.5026    0.0000 C   0  0  0  0  0  0  0  0  0  0  0  0
   -1.7320    1.0001    0.0000 O   0  0  0  0  0  0  0  0  0  0  0  0
    0.0000    1.0052    0.0000 C   0  0  0  0  0  0  0  0  0  0  0  0
    0.0000    0.0000    0.0000 C   0  0  0  0  0  0  0  0  0  0  0  0
    0.8675   -0.4975    0.0000 C   0  0  0  0  0  0  0  0  0  0  0  0
    1.7350   -0.0000    0.0000 C   0  0  0  0  0  0  0  0  0  0  0  0
    2.6003   -0.5013    0.0000 O   0  0  0  0  0  0  0  0  0  0  0  0
    1.7350    1.0052    0.0000 C   0  0  0  0  0  0  0  0  0  0  0  0
    2.6025    1.5026    0.0000 C   0  0  0  0  0  0  0  0  0  0  0  0
    2.6054    2.5026    0.0000 O   0  0  0  0  0  0  0  0  0  0  0  0
    0.8675    1.5129    0.0000 C   0  0  0  0  0  0  0  0  0  0  0  0
  1  2  1  0
  2  3  1  0
  2  4  1  0
  2  5  1  0
  5  6  1  0
  6  7  1  0
  7  8  1  0
  7  9  1  0
  9 17  2  0
  9 10  1  0
 10 11  2  0
 11 12  1  0
 12 13  1  0
 12 14  2  0
 14 15  1  0
 15 16  1  0
 14 17  1  0
M  END
>  <SMILES>  (502) 
CC(C)(C)NCC(O)c1ccc(O)c(CO)c1

>  <CollectionName>  (502) 
chembl

>  <LOG PLASMA PROTEIN BINDING (RAT) (% unbound)>  (502) 
1.81677141233

>  <Internal ID>  (502) 


>  <Source>  (502) 
AstraZeneca

$$$$
CHEMBL715
     RDKit          2D

 22 25  0  0  0  0  0  0  0  0999 V2000
   -0.9735   -6.8970    0.0000 C   0  0  0  0  0  0  0  0  0  0  0  0
   -1.1966   -5.9222    0.0000 N   0  0  0  0  0  0  0  0  0  0  0  0
   -2.1532   -5.6307    0.0000 C   0  0  0  0  0  0  0  0  0  0  0  0
   -2.3774   -4.6508    0.0000 C   0  0  0  0  0  0  0  0  0  0  0  0
   -1.6450   -3.9624    0.0000 N   0  0  0  0  0  0  0  0  0  0  0  0
   -0.6861   -4.2638    0.0000 C   0  0  0  0  0  0  0  0  0  0  0  0
   -0.4619   -5.2437    0.0000 C   0  0  0  0  0  0  0  0  0  0  0  0
   -1.8681   -2.9876    0.0000 C   0  0  0  0  0  0  0  0  0  0  0  0
   -1.0848   -2.3595    0.0000 N   0  0  0  0  0  0  0  0  0  0  0  0
   -1.0848   -1.3575    0.0000 C   0  0  0  0  0  0  0  0  0  0  0  0
   -0.1492   -0.9927    0.0000 C   0  0  0  0  0  0  0  0  0  0  0  0
    0.0000    0.0000    0.0000 C   0  0  0  0  0  0  0  0  0  0  0  0
   -0.7866    0.6279    0.0000 C   0  0  0  0  0  0  0  0  0  0  0  0
   -1.7191    0.2600    0.0000 C   0  0  0  0  0  0  0  0  0  0  0  0
   -1.8681   -0.7326    0.0000 C   0  0  0  0  0  0  0  0  0  0  0  0
   -2.8481   -0.9578    0.0000 N   0  0  0  0  0  0  0  0  0  0  0  0
   -3.2826   -1.8585    0.0000 C   0  0  0  0  0  0  0  0  0  0  0  0
   -4.2784   -1.9917    0.0000 S   0  0  0  0  0  0  0  0  0  0  0  0
   -4.4560   -2.9812    0.0000 C   0  0  0  0  0  0  0  0  0  0  0  0
   -5.3565   -3.4161    0.0000 C   0  0  0  0  0  0  0  0  0  0  0  0
   -3.5712   -3.4569    0.0000 C   0  0  0  0  0  0  0  0  0  0  0  0
   -2.8481   -2.7623    0.0000 C   0  0  0  0  0  0  0  0  0  0  0  0
  1  2  1  0
  2  7  1  0
  2  3  1  0
  3  4  1  0
  4  5  1  0
  5  6  1  0
  6  7  1  0
  5  8  1  0
  8 22  1  0
  8  9  2  0
  9 10  1  0
 10 15  2  0
 10 11  1  0
 11 12  2  0
 12 13  1  0
 13 14  2  0
 14 15  1  0
 15 16  1  0
 16 17  1  0
 17 22  2  0
 17 18  1  0
 18 19  1  0
 19 20  1  0
 19 21  2  0
 21 22  1  0
M  END
>  <SMILES>  (503) 
Cc1cc2c(s1)Nc1ccccc1N=C2N1CCN(C)CC1

>  <CollectionName>  (503) 
chembl

>  <LOG PLASMA PROTEIN BINDING (RAT) (% unbound)>  (503) 
1.09272064468

>  <Internal ID>  (503) 


>  <Source>  (503) 
AstraZeneca

$$$$
CHEMBL216981
     RDKit          2D

 29 31  0  0  1  0  0  0  0  0999 V2000
    2.7977   -0.3885    0.0000 C   0  0  0  0  0  0  0  0  0  0  0  0
    3.0070    0.5894    0.0000 C   0  0  0  0  0  0  0  0  0  0  0  0
    2.2648    1.2596    0.0000 C   0  0  0  0  0  0  0  0  0  0  0  0
    2.4741    2.2374    0.0000 N   0  0  0  0  0  0  0  0  0  0  0  0
    3.4256    2.5451    0.0000 C   0  0  0  0  0  0  0  0  0  0  0  0
    4.3160    2.0898    0.0000 C   0  0  0  0  0  0  0  0  0  0  0  0
    4.6236    1.1383    0.0000 N   0  0  0  0  0  0  0  0  0  0  0  0
    5.6015    0.9290    0.0000 C   0  0  0  0  0  0  0  0  0  0  0  0
    6.2729    1.6770    0.0000 C   0  0  0  0  0  0  0  0  0  0  0  0
    7.2508    1.4678    0.0000 C   0  0  0  0  0  0  0  0  0  0  0  0
    7.5641    0.5181    0.0000 C   0  0  0  0  0  0  0  0  0  0  0  0
    6.8926   -0.2300    0.0000 C   0  0  0  0  0  0  0  0  0  0  0  0
    7.2059   -1.1796    0.0000 C   0  0  0  0  0  0  0  0  0  0  0  0
    6.5401   -1.9258    0.0000 O   0  0  0  0  0  0  0  0  0  0  0  0
    8.1849   -1.3832    0.0000 N   0  0  0  0  0  0  0  0  0  0  0  0
    8.8507   -0.6370    0.0000 C   0  0  0  0  0  0  0  0  0  0  0  0
    8.4982   -2.3328    0.0000 C   0  0  0  0  0  0  0  0  0  0  0  0
    5.9079   -0.0283    0.0000 C   0  0  0  0  0  0  0  0  0  0  0  0
    5.2399   -0.7725    0.0000 O   0  0  0  0  0  0  0  0  0  0  0  0
    4.7712    2.9802    0.0000 C   0  0  0  0  0  0  0  0  0  0  0  0
    5.7227    3.2878    0.0000 O   0  0  0  0  0  0  0  0  0  0  0  0
    3.8809    3.4354    0.0000 C   0  0  0  0  0  0  0  0  0  0  0  0
    3.5732    4.3869    0.0000 O   0  0  0  0  0  0  0  0  0  0  0  0
    1.3133    0.9519    0.0000 C   0  0  0  0  0  0  0  0  0  0  0  0
    0.5008    1.5428    0.0000 O   0  0  0  0  0  0  0  0  0  0  0  0
   -0.3065    0.9519    0.0000 C   0  0  0  0  0  0  0  0  0  0  0  0
   -1.2577    1.2605    0.0000 C   0  0  0  0  0  0  0  0  0  0  0  0
    0.0000    0.0000    0.0000 C   0  0  0  0  0  0  0  0  0  0  0  0
    1.0015    0.0000    0.0000 C   0  0  0  0  0  0  0  0  0  0  0  0
  1  2  1  0
  3  2  1  6
  3  4  1  0
  4  5  1  0
  5 22  1  0
  5  6  2  0
  6  7  1  0
  7  8  1  0
  8 18  1  0
  8  9  2  0
  9 10  1  0
 10 11  2  0
 11 12  1  0
 12 13  1  0
 13 14  2  0
 13 15  1  0
 15 16  1  0
 15 17  1  0
 12 18  2  0
 18 19  1  0
  6 20  1  0
 20 21  2  0
 20 22  1  0
 22 23  2  0
  3 24  1  0
 24 29  2  0
 24 25  1  0
 25 26  1  0
 26 27  1  0
 26 28  2  0
 28 29  1  0
M  END
>  <SMILES>  (504) 
CC[C@@H](Nc1c(Nc2cccc(C(=O)N(C)C)c2O)c(=O)c1=O)c1ccc(C)o1

>  <CollectionName>  (504) 
chembl

>  <LOG PLASMA PROTEIN BINDING (RAT) (% unbound)>  (504) 
0.0253058652648

>  <Internal ID>  (504) 


>  <Source>  (504) 
AstraZeneca

$$$$
CHEMBL556667
     RDKit          2D

 16 17  0  0  0  0  0  0  0  0999 V2000
    3.4906    5.9950    0.0000 Cl  0  0  0  0  0  0  0  0  0  0  0  0
    3.4818    4.9950    0.0000 C   0  0  0  0  0  0  0  0  0  0  0  0
    4.3493    4.4873    0.0000 C   0  0  0  0  0  0  0  0  0  0  0  0
    4.3405    3.4873    0.0000 C   0  0  0  0  0  0  0  0  0  0  0  0
    3.4730    2.9899    0.0000 C   0  0  0  0  0  0  0  0  0  0  0  0
    2.6054    3.4976    0.0000 C   0  0  0  0  0  0  0  0  0  0  0  0
    1.7379    3.0001    0.0000 N   0  0  0  0  0  0  0  0  0  0  0  0
    1.7350    2.0001    0.0000 C   0  0  0  0  0  0  0  0  0  0  0  0
    2.5995    1.4976    0.0000 O   0  0  0  0  0  0  0  0  0  0  0  0
    0.8675    1.5027    0.0000 C   0  0  0  0  0  0  0  0  0  0  0  0
    0.8675    0.4975    0.0000 C   0  0  0  0  0  0  0  0  0  0  0  0
    0.0000    0.0000    0.0000 C   0  0  0  0  0  0  0  0  0  0  0  0
   -0.8675    0.4975    0.0000 C   0  0  0  0  0  0  0  0  0  0  0  0
   -0.8675    1.5027    0.0000 C   0  0  0  0  0  0  0  0  0  0  0  0
   -0.0000    2.0104    0.0000 N   0  0  0  0  0  0  0  0  0  0  0  0
    2.6054    4.5027    0.0000 C   0  0  0  0  0  0  0  0  0  0  0  0
  1  2  1  0
  2 16  2  0
  2  3  1  0
  3  4  2  0
  4  5  1  0
  5  6  2  0
  6  7  1  0
  7  8  1  0
  8  9  2  0
  8 10  1  0
 10 15  1  0
 10 11  2  0
 11 12  1  0
 12 13  2  0
 13 14  1  0
 14 15  2  0
  6 16  1  0
M  END
>  <SMILES>  (505) 
O=C(Nc1cccc(Cl)c1)c1ccccn1

>  <CollectionName>  (505) 
chembl

>  <LOG PLASMA PROTEIN BINDING (RAT) (% unbound)>  (505) 
0.688419822003

>  <Internal ID>  (505) 


>  <Source>  (505) 
AstraZeneca

$$$$
CHEMBL564737
     RDKit          2D

 28 30  0  0  0  0  0  0  0  0999 V2000
   -3.1802    6.9368    0.0000 O   0  0  0  0  0  0  0  0  0  0  0  0
   -3.5529    6.0089    0.0000 C   0  0  0  0  0  0  0  0  0  0  0  0
   -2.9355    5.2222    0.0000 O   0  0  0  0  0  0  0  0  0  0  0  0
   -4.5428    5.8676    0.0000 C   0  0  0  0  0  0  0  0  0  0  0  0
   -5.1610    6.6602    0.0000 C   0  0  0  0  0  0  0  0  0  0  0  0
   -6.1548    6.5094    0.0000 C   0  0  0  0  0  0  0  0  0  0  0  0
   -6.5266    5.5755    0.0000 C   0  0  0  0  0  0  0  0  0  0  0  0
   -5.9047    4.7924    0.0000 C   0  0  0  0  0  0  0  0  0  0  0  0
   -4.9147    4.9337    0.0000 C   0  0  0  0  0  0  0  0  0  0  0  0
   -4.2962    4.1479    0.0000 C   0  0  0  0  0  0  0  0  0  0  0  0
   -4.6721    3.2157    0.0000 C   0  0  0  0  0  0  0  0  0  0  0  0
   -4.0536    2.4298    0.0000 C   0  0  0  0  0  0  0  0  0  0  0  0
   -3.0630    2.5668    0.0000 C   0  0  0  0  0  0  0  0  0  0  0  0
   -2.4480    1.7783    0.0000 Cl  0  0  0  0  0  0  0  0  0  0  0  0
   -2.6871    3.4990    0.0000 C   0  0  0  0  0  0  0  0  0  0  0  0
   -3.3017    4.2943    0.0000 C   0  0  0  0  0  0  0  0  0  0  0  0
   -1.6965    3.6359    0.0000 C   0  0  0  0  0  0  0  0  0  0  0  0
   -1.3198    4.5623    0.0000 O   0  0  0  0  0  0  0  0  0  0  0  0
   -1.0826    2.8465    0.0000 N   0  0  0  0  0  0  0  0  0  0  0  0
   -0.0921    2.9834    0.0000 C   0  0  0  0  0  0  0  0  0  0  0  0
    0.5218    2.1940    0.0000 C   0  0  0  0  0  0  0  0  0  0  0  0
    1.1540    2.9688    0.0000 O   0  0  0  0  0  0  0  0  0  0  0  0
   -0.3849    1.7722    0.0000 C   0  0  0  0  0  0  0  0  0  0  0  0
   -0.6197    0.7929    0.0000 C   0  0  0  0  0  0  0  0  0  0  0  0
    0.0000    0.0000    0.0000 C   0  0  0  0  0  0  0  0  0  0  0  0
    1.0058   -0.0072    0.0000 C   0  0  0  0  0  0  0  0  0  0  0  0
    1.6419    0.7688    0.0000 C   0  0  0  0  0  0  0  0  0  0  0  0
    1.4246    1.7480    0.0000 C   0  0  0  0  0  0  0  0  0  0  0  0
  1  2  1  0
  2  3  2  0
  2  4  1  0
  4  9  2  0
  4  5  1  0
  5  6  2  0
  6  7  1  0
  7  8  2  0
  8  9  1  0
  9 10  1  0
 10 16  1  0
 10 11  2  0
 11 12  1  0
 12 13  2  0
 13 14  1  0
 13 15  1  0
 15 16  2  0
 15 17  1  0
 17 18  2  0
 17 19  1  0
 19 20  1  0
 20 21  1  0
 21 28  1  0
 21 22  1  0
 21 23  1  0
 23 24  1  0
 24 25  1  0
 25 26  1  0
 26 27  1  0
 27 28  1  0
M  END
>  <SMILES>  (506) 
O=C(NCC1(O)CCCCCC1)c1cc(-c2ccccc2C(=O)O)ccc1Cl

>  <CollectionName>  (506) 
chembl

>  <LOG PLASMA PROTEIN BINDING (RAT) (% unbound)>  (506) 
0.958563883222

>  <Internal ID>  (506) 


>  <Source>  (506) 
AstraZeneca

$$$$
CHEMBL1916274
     RDKit          2D

 32 35  0  0  0  0  0  0  0  0999 V2000
    3.0101   -4.6887    0.0000 C   0  0  0  0  0  0  0  0  0  0  0  0
    2.9024   -3.6945    0.0000 C   0  0  0  0  0  0  0  0  0  0  0  0
    3.7087   -3.1029    0.0000 C   0  0  0  0  0  0  0  0  0  0  0  0
    3.6053   -2.1083    0.0000 C   0  0  0  0  0  0  0  0  0  0  0  0
    2.6863   -1.7010    0.0000 C   0  0  0  0  0  0  0  0  0  0  0  0
    1.8707   -2.2885    0.0000 C   0  0  0  0  0  0  0  0  0  0  0  0
    1.9834   -3.2873    0.0000 C   0  0  0  0  0  0  0  0  0  0  0  0
    2.5830   -0.7064    0.0000 S   0  0  0  0  0  0  0  0  0  0  0  0
    2.4796    0.2883    0.0000 O   0  0  0  0  0  0  0  0  0  0  0  0
    3.5776   -0.6030    0.0000 O   0  0  0  0  0  0  0  0  0  0  0  0
    1.5883   -0.8097    0.0000 N   0  0  0  0  0  0  0  0  0  0  0  0
    1.0015   -0.0000    0.0000 C   0  0  0  0  0  0  0  0  0  0  0  0
    0.0000    0.0000    0.0000 C   0  0  0  0  0  0  0  0  0  0  0  0
   -0.5889   -0.8082    0.0000 C   0  0  0  0  0  0  0  0  0  0  0  0
   -1.5832   -0.7024    0.0000 O   0  0  0  0  0  0  0  0  0  0  0  0
   -0.1833   -1.7223    0.0000 N   0  0  0  0  0  0  0  0  0  0  0  0
   -0.7722   -2.5306    0.0000 C   0  0  0  0  0  0  0  0  0  0  0  0
   -0.3619   -3.4482    0.0000 C   0  0  0  0  0  0  0  0  0  0  0  0
   -0.9507   -4.2565    0.0000 C   0  0  0  0  0  0  0  0  0  0  0  0
   -1.9457   -4.1564    0.0000 C   0  0  0  0  0  0  0  0  0  0  0  0
   -2.3560   -3.2388    0.0000 C   0  0  0  0  0  0  0  0  0  0  0  0
   -1.7714   -2.4212    0.0000 C   0  0  0  0  0  0  0  0  0  0  0  0
   -0.3065    0.9519    0.0000 C   0  0  0  0  0  0  0  0  0  0  0  0
   -1.2577    1.2605    0.0000 C   0  0  0  0  0  0  0  0  0  0  0  0
    0.5008    1.5428    0.0000 N   0  0  0  0  0  0  0  0  0  0  0  0
    1.3133    0.9519    0.0000 N   0  0  0  0  0  0  0  0  0  0  0  0
    2.9784    1.4903    0.0000 C   0  0  0  0  0  0  0  0  0  0  0  0
    3.1859    2.4739    0.0000 C   0  0  0  0  0  0  0  0  0  0  0  0
    4.1374    2.7816    0.0000 C   0  0  0  0  0  0  0  0  0  0  0  0
    4.8835    2.1157    0.0000 C   0  0  0  0  0  0  0  0  0  0  0  0
    4.6761    1.1322    0.0000 C   0  0  0  0  0  0  0  0  0  0  0  0
    3.7224    0.8145    0.0000 C   0  0  0  0  0  0  0  0  0  0  0  0
  1  2  1  0
  2  7  2  0
  2  3  1  0
  3  4  2  0
  4  5  1  0
  5  6  2  0
  6  7  1  0
  5  8  1  0
  8  9  2  0
  8 10  2  0
  8 11  1  0
 11 12  1  0
 12 26  1  0
 12 13  2  0
 13 14  1  0
 14 15  2  0
 14 16  1  0
 16 17  1  0
 17 22  1  0
 17 18  1  0
 18 19  1  0
 19 20  1  0
 20 21  1  0
 21 22  1  0
 13 23  1  0
 23 24  1  0
 23 25  2  0
 25 26  1  0
 26 27  1  0
 27 32  1  0
 27 28  2  0
 28 29  1  0
 29 30  2  0
 30 31  1  0
 31 32  2  0
M  END
>  <SMILES>  (507) 
Cc1ccc(S(=O)(=O)Nc2c(C(=O)NC3CCCCC3)c(C)nn2-c2ccccc2)cc1

>  <CollectionName>  (507) 
chembl

>  <LOG PLASMA PROTEIN BINDING (RAT) (% unbound)>  (507) 
0.330413773349

>  <Internal ID>  (507) 


>  <Source>  (507) 
AstraZeneca

$$$$
CHEMBL550436
     RDKit          2D

 30 32  0  0  1  0  0  0  0  0999 V2000
    4.3588    2.4968    0.0000 C   0  0  0  0  0  0  0  0  0  0  0  0
    4.3535    1.4968    0.0000 C   0  0  0  0  0  0  0  0  0  0  0  0
    5.2168    0.9922    0.0000 C   0  0  0  0  0  0  0  0  0  0  0  0
    6.0855    1.4875    0.0000 O   0  0  0  0  0  0  0  0  0  0  0  0
    3.4848    1.0014    0.0000 N   0  0  0  0  0  0  0  0  0  0  0  0
    3.4805   -0.0073    0.0000 C   0  0  0  0  0  0  0  0  0  0  0  0
    2.6039   -0.5053    0.0000 C   0  0  0  0  0  0  0  0  0  0  0  0
    1.7371    0.0000    0.0000 C   0  0  0  0  0  0  0  0  0  0  0  0
    0.8707   -0.4993    0.0000 C   0  0  0  0  0  0  0  0  0  0  0  0
    0.8718   -1.4993    0.0000 N   0  0  0  0  0  0  0  0  0  0  0  0
    0.0063   -2.0002    0.0000 C   0  0  0  0  0  0  0  0  0  0  0  0
   -0.8603   -1.5012    0.0000 O   0  0  0  0  0  0  0  0  0  0  0  0
    0.0073   -3.0002    0.0000 C   0  0  0  0  0  0  0  0  0  0  0  0
   -0.8581   -3.5012    0.0000 C   0  0  0  0  0  0  0  0  0  0  0  0
   -1.7277   -2.9969    0.0000 C   0  0  0  0  0  0  0  0  0  0  0  0
   -2.5933   -3.4978    0.0000 C   0  0  0  0  0  0  0  0  0  0  0  0
   -2.5980   -4.4978    0.0000 C   0  0  0  0  0  0  0  0  0  0  0  0
   -3.4657   -4.9949    0.0000 Cl  0  0  0  0  0  0  0  0  0  0  0  0
   -1.7285   -5.0021    0.0000 C   0  0  0  0  0  0  0  0  0  0  0  0
   -0.8541   -4.5063    0.0000 C   0  0  0  0  0  0  0  0  0  0  0  0
   -1.7333   -6.0021    0.0000 C   0  0  0  0  0  0  0  0  0  0  0  0
   -0.7333   -6.0069    0.0000 F   0  0  0  0  0  0  0  0  0  0  0  0
   -2.7333   -5.9972    0.0000 F   0  0  0  0  0  0  0  0  0  0  0  0
   -1.7381   -7.0020    0.0000 F   0  0  0  0  0  0  0  0  0  0  0  0
    0.0000    0.0000    0.0000 C   0  0  0  0  0  0  0  0  0  0  0  0
    0.0000    1.0089    0.0000 C   0  0  0  0  0  0  0  0  0  0  0  0
    0.8707    1.5185    0.0000 C   0  0  0  0  0  0  0  0  0  0  0  0
    1.7414    1.0089    0.0000 C   0  0  0  0  0  0  0  0  0  0  0  0
    2.6125    1.5125    0.0000 C   0  0  0  0  0  0  0  0  0  0  0  0
    2.6154    2.5125    0.0000 O   0  0  0  0  0  0  0  0  0  0  0  0
  2  1  1  6
  2  3  1  0
  3  4  1  0
  2  5  1  0
  5 29  1  0
  5  6  1  0
  6  7  2  0
  7  8  1  0
  8 28  2  0
  8  9  1  0
  9 10  1  0
 10 11  1  0
 11 12  2  0
 11 13  1  0
 13 14  1  0
 14 20  1  0
 14 15  2  0
 15 16  1  0
 16 17  2  0
 17 18  1  0
 17 19  1  0
 19 20  2  0
 19 21  1  0
 21 22  1  0
 21 23  1  0
 21 24  1  0
  9 25  2  0
 25 26  1  0
 26 27  2  0
 27 28  1  0
 28 29  1  0
 29 30  2  0
M  END
>  <SMILES>  (508) 
C[C@H](CO)n1ccc2c(NC(=O)Cc3ccc(Cl)c(C(F)(F)F)c3)cccc2c1=O

>  <CollectionName>  (508) 
chembl

>  <LOG PLASMA PROTEIN BINDING (RAT) (% unbound)>  (508) 
0.592176757396

>  <Internal ID>  (508) 


>  <Source>  (508) 
AstraZeneca

$$$$
CHEMBL552512
     RDKit          2D

 27 30  0  0  1  0  0  0  0  0999 V2000
   -0.8603   -1.5012    0.0000 O   0  0  0  0  0  0  0  0  0  0  0  0
    0.0063   -2.0002    0.0000 C   0  0  0  0  0  0  0  0  0  0  0  0
    0.0073   -3.0002    0.0000 C   0  0  0  0  0  0  0  0  0  0  0  0
   -0.8581   -3.5012    0.0000 C   0  0  0  0  0  0  0  0  0  0  0  0
   -1.6841   -2.9373    0.0000 C   0  0  0  0  0  0  0  0  0  0  0  0
   -2.6458   -3.2360    0.0000 C   0  0  0  0  0  0  0  0  0  0  0  0
   -3.0107   -4.1738    0.0000 C   0  0  0  0  0  0  0  0  0  0  0  0
   -2.5029   -5.0421    0.0000 C   0  0  0  0  0  0  0  0  0  0  0  0
   -1.5108   -5.1923    0.0000 C   0  0  0  0  0  0  0  0  0  0  0  0
   -0.7801   -4.5051    0.0000 C   0  0  0  0  0  0  0  0  0  0  0  0
    0.8718   -1.4993    0.0000 N   0  0  0  0  0  0  0  0  0  0  0  0
    0.8707   -0.4993    0.0000 C   0  0  0  0  0  0  0  0  0  0  0  0
    0.0000    0.0000    0.0000 C   0  0  0  0  0  0  0  0  0  0  0  0
    0.0000    1.0089    0.0000 C   0  0  0  0  0  0  0  0  0  0  0  0
    0.8707    1.5185    0.0000 C   0  0  0  0  0  0  0  0  0  0  0  0
    1.7414    1.0089    0.0000 C   0  0  0  0  0  0  0  0  0  0  0  0
    2.6125    1.5125    0.0000 C   0  0  0  0  0  0  0  0  0  0  0  0
    2.6154    2.5125    0.0000 O   0  0  0  0  0  0  0  0  0  0  0  0
    3.4848    1.0014    0.0000 N   0  0  0  0  0  0  0  0  0  0  0  0
    3.4805   -0.0073    0.0000 C   0  0  0  0  0  0  0  0  0  0  0  0
    2.6039   -0.5053    0.0000 C   0  0  0  0  0  0  0  0  0  0  0  0
    1.7371    0.0000    0.0000 C   0  0  0  0  0  0  0  0  0  0  0  0
    4.3535    1.4968    0.0000 C   0  0  0  0  0  0  0  0  0  0  0  0
    4.4623    2.4923    0.0000 C   0  0  0  0  0  0  0  0  0  0  0  0
    5.4419    2.6936    0.0000 C   0  0  0  0  0  0  0  0  0  0  0  0
    5.9415    1.8269    0.0000 N   0  0  0  0  0  0  0  0  0  0  0  0
    5.2659    1.0834    0.0000 C   0  0  0  0  0  0  0  0  0  0  0  0
  1  2  2  0
  2  3  1  0
  3  4  1  0
  4 10  1  0
  4  5  1  0
  5  6  1  0
  6  7  1  0
  7  8  1  0
  8  9  1  0
  9 10  1  0
  2 11  1  0
 11 12  1  0
 12 22  1  0
 12 13  2  0
 13 14  1  0
 14 15  2  0
 15 16  1  0
 16 22  2  0
 16 17  1  0
 17 18  2  0
 17 19  1  0
 19 20  1  0
 20 21  2  0
 21 22  1  0
 23 19  1  1
 23 27  1  0
 23 24  1  0
 24 25  1  0
 25 26  1  0
 26 27  1  0
M  END
>  <SMILES>  (509) 
O=C(CC1CCCCCC1)Nc1cccc2c(=O)n([C@H]3CCNC3)ccc12

>  <CollectionName>  (509) 
chembl

>  <LOG PLASMA PROTEIN BINDING (RAT) (% unbound)>  (509) 
1.36530074864

>  <Internal ID>  (509) 


>  <Source>  (509) 
AstraZeneca

$$$$
CHEMBL1381989
     RDKit          2D

 19 21  0  0  0  0  0  0  0  0999 V2000
   -0.5440    1.1269    0.0000 C   0  0  0  0  0  0  0  0  0  0  0  0
    0.4318    0.9084    0.0000 C   0  0  0  0  0  0  0  0  0  0  0  0
    0.4286    1.9084    0.0000 C   0  0  0  0  0  0  0  0  0  0  0  0
    0.0000    0.0000    0.0000 C   0  0  0  0  0  0  0  0  0  0  0  0
    0.4340   -0.9043    0.0000 N   0  0  0  0  0  0  0  0  0  0  0  0
    1.4131   -1.1217    0.0000 C   0  0  0  0  0  0  0  0  0  0  0  0
    1.6395   -2.0957    0.0000 O   0  0  0  0  0  0  0  0  0  0  0  0
    2.1989   -0.4923    0.0000 C   0  0  0  0  0  0  0  0  0  0  0  0
    3.1500   -0.8066    0.0000 S   0  0  0  0  0  0  0  0  0  0  0  0
    3.7428    0.0008    0.0000 C   0  0  0  0  0  0  0  0  0  0  0  0
    3.1582    0.8139    0.0000 N   0  0  0  0  0  0  0  0  0  0  0  0
    2.2003    0.5077    0.0000 C   0  0  0  0  0  0  0  0  0  0  0  0
    1.4123    1.1345    0.0000 C   0  0  0  0  0  0  0  0  0  0  0  0
    4.7428   -0.0042    0.0000 N   0  0  0  0  0  0  0  0  0  0  0  0
    5.2446    0.8608    0.0000 C   0  0  0  0  0  0  0  0  0  0  0  0
    6.2498    0.8558    0.0000 C   0  0  0  0  0  0  0  0  0  0  0  0
    6.7532   -0.0142    0.0000 O   0  0  0  0  0  0  0  0  0  0  0  0
    6.2411   -0.8792    0.0000 C   0  0  0  0  0  0  0  0  0  0  0  0
    5.2360   -0.8742    0.0000 C   0  0  0  0  0  0  0  0  0  0  0  0
  1  2  1  0
  2 13  1  0
  2  3  1  0
  2  4  1  0
  4  5  1  0
  5  6  1  0
  6  7  2  0
  6  8  1  0
  8 12  2  0
  8  9  1  0
  9 10  1  0
 10 11  2  0
 11 12  1  0
 12 13  1  0
 10 14  1  0
 14 19  1  0
 14 15  1  0
 15 16  1  0
 16 17  1  0
 17 18  1  0
 18 19  1  0
M  END
>  <SMILES>  (510) 
CC1(C)CNC(=O)c2sc(N3CCOCC3)nc2C1

>  <CollectionName>  (510) 
chembl

>  <LOG PLASMA PROTEIN BINDING (RAT) (% unbound)>  (510) 
1.71374247841

>  <Internal ID>  (510) 


>  <Source>  (510) 
AstraZeneca

$$$$
CHEMBL1852508
     RDKit          2D

 30 32  0  0  1  0  0  0  0  0999 V2000
    1.5883   -0.8097    0.0000 C   0  0  0  0  0  0  0  0  0  0  0  0
    1.0015    0.0000    0.0000 C   0  0  0  0  0  0  0  0  0  0  0  0
    0.0000    0.0000    0.0000 C   0  0  0  0  0  0  0  0  0  0  0  0
   -0.3065    0.9519    0.0000 C   0  0  0  0  0  0  0  0  0  0  0  0
    0.5008    1.5428    0.0000 N   0  0  0  0  0  0  0  0  0  0  0  0
    1.3133    0.9519    0.0000 N   0  0  0  0  0  0  0  0  0  0  0  0
    2.2648    1.2596    0.0000 C   0  0  0  0  0  0  0  0  0  0  0  0
    2.4741    2.2374    0.0000 C   0  0  0  0  0  0  0  0  0  0  0  0
    1.7319    2.9076    0.0000 O   0  0  0  0  0  0  0  0  0  0  0  0
    3.4256    2.5451    0.0000 C   0  0  0  0  0  0  0  0  0  0  0  0
    3.6349    3.5229    0.0000 N   0  0  0  0  0  0  0  0  0  0  0  0
   -1.2577    1.2605    0.0000 C   0  0  0  0  0  0  0  0  0  0  0  0
   -1.4642    2.2443    0.0000 C   0  0  0  0  0  0  0  0  0  0  0  0
   -2.4154    2.5529    0.0000 C   0  0  0  0  0  0  0  0  0  0  0  0
   -3.1622    1.8878    0.0000 C   0  0  0  0  0  0  0  0  0  0  0  0
   -4.1120    2.2006    0.0000 Cl  0  0  0  0  0  0  0  0  0  0  0  0
   -2.9557    0.9040    0.0000 C   0  0  0  0  0  0  0  0  0  0  0  0
   -2.0024    0.5854    0.0000 C   0  0  0  0  0  0  0  0  0  0  0  0
   -3.7025    0.2390    0.0000 C   0  0  0  0  0  0  0  0  0  0  0  0
   -3.4999   -0.7403    0.0000 O   0  0  0  0  0  0  0  0  0  0  0  0
   -4.6518    0.5532    0.0000 N   0  0  0  0  0  0  0  0  0  0  0  0
   -5.3986   -0.1119    0.0000 C   0  0  0  0  0  0  0  0  0  0  0  0
   -6.3480    0.2023    0.0000 C   0  0  0  0  0  0  0  0  0  0  0  0
   -6.4419   -0.7932    0.0000 O   0  0  0  0  0  0  0  0  0  0  0  0
   -5.8294    1.0574    0.0000 C   0  0  0  0  0  0  0  0  0  0  0  0
   -6.1794    2.0017    0.0000 C   0  0  0  0  0  0  0  0  0  0  0  0
   -7.1355    2.3155    0.0000 C   0  0  0  0  0  0  0  0  0  0  0  0
   -7.9752    1.7617    0.0000 C   0  0  0  0  0  0  0  0  0  0  0  0
   -8.0718    0.7630    0.0000 C   0  0  0  0  0  0  0  0  0  0  0  0
   -7.3462    0.0704    0.0000 C   0  0  0  0  0  0  0  0  0  0  0  0
  1  2  1  0
  2  6  1  0
  2  3  2  0
  3  4  1  0
  4  5  2  0
  5  6  1  0
  6  7  1  0
  7  8  1  0
  8  9  1  6
  8 10  1  0
 10 11  1  0
  4 12  1  0
 12 18  1  0
 12 13  2  0
 13 14  1  0
 14 15  2  0
 15 16  1  0
 15 17  1  0
 17 18  2  0
 17 19  1  0
 19 20  2  0
 19 21  1  0
 21 22  1  0
 22 23  1  0
 23 30  1  0
 23 24  1  0
 23 25  1  0
 25 26  1  0
 26 27  1  0
 27 28  1  0
 28 29  1  0
 29 30  1  0
M  END
>  <SMILES>  (511) 
Cc1cc(-c2ccc(Cl)c(C(=O)NCC3(O)CCCCCC3)c2)nn1C[C@H](O)CN

>  <CollectionName>  (511) 
chembl

>  <LOG PLASMA PROTEIN BINDING (RAT) (% unbound)>  (511) 
1.48967729166

>  <Internal ID>  (511) 


>  <Source>  (511) 
AstraZeneca

$$$$
CHEMBL1865796
     RDKit          2D

 17 18  0  0  0  0  0  0  0  0999 V2000
    0.8712   -3.5014    0.0000 C   0  0  0  0  0  0  0  0  0  0  0  0
    0.0044   -3.0027    0.0000 C   0  0  0  0  0  0  0  0  0  0  0  0
   -0.8616   -3.5028    0.0000 C   0  0  0  0  0  0  0  0  0  0  0  0
   -1.7306   -3.0078    0.0000 C   0  0  0  0  0  0  0  0  0  0  0  0
   -1.7335   -2.0026    0.0000 C   0  0  0  0  0  0  0  0  0  0  0  0
   -0.8675   -1.4924    0.0000 C   0  0  0  0  0  0  0  0  0  0  0  0
    0.0015   -1.9975    0.0000 C   0  0  0  0  0  0  0  0  0  0  0  0
    0.8675   -1.4975    0.0000 N   0  0  0  0  0  0  0  0  0  0  0  0
    0.8675   -0.4975    0.0000 C   0  0  0  0  0  0  0  0  0  0  0  0
    1.7350    0.0000    0.0000 N   0  0  0  0  0  0  0  0  0  0  0  0
    1.7350    1.0052    0.0000 C   0  0  0  0  0  0  0  0  0  0  0  0
    2.6025    1.5026    0.0000 N   0  0  0  0  0  0  0  0  0  0  0  0
    0.8675    1.5129    0.0000 N   0  0  0  0  0  0  0  0  0  0  0  0
    0.0000    1.0052    0.0000 C   0  0  0  0  0  0  0  0  0  0  0  0
   -0.8675    1.5026    0.0000 C   0  0  0  0  0  0  0  0  0  0  0  0
    0.0000    0.0000    0.0000 C   0  0  0  0  0  0  0  0  0  0  0  0
   -0.8653   -0.5013    0.0000 Br  0  0  0  0  0  0  0  0  0  0  0  0
  1  2  1  0
  2  7  2  0
  2  3  1  0
  3  4  2  0
  4  5  1  0
  5  6  2  0
  6  7  1  0
  7  8  1  0
  8  9  1  0
  9 16  1  0
  9 10  2  0
 10 11  1  0
 11 12  1  0
 11 13  2  0
 13 14  1  0
 14 15  1  0
 14 16  2  0
 16 17  1  0
M  END
>  <SMILES>  (512) 
Cc1ccccc1Nc1nc(N)nc(C)c1Br

>  <CollectionName>  (512) 
chembl

>  <LOG PLASMA PROTEIN BINDING (RAT) (% unbound)>  (512) 
0.876217840592

>  <Internal ID>  (512) 


>  <Source>  (512) 
AstraZeneca

$$$$
CHEMBL1422
     RDKit          2D

 28 30  0  0  1  0  0  0  0  0999 V2000
   -2.5960   -2.5094    0.0000 N   0  0  0  0  0  0  0  0  0  0  0  0
   -1.7292   -3.0082    0.0000 C   0  0  0  0  0  0  0  0  0  0  0  0
   -0.8639   -2.5070    0.0000 C   0  0  0  0  0  0  0  0  0  0  0  0
   -0.8653   -1.5070    0.0000 C   0  0  0  0  0  0  0  0  0  0  0  0
   -1.7320   -1.0082    0.0000 O   0  0  0  0  0  0  0  0  0  0  0  0
   -0.0000   -1.0058    0.0000 N   0  0  0  0  0  0  0  0  0  0  0  0
    0.0000    0.0000    0.0000 C   0  0  0  0  0  0  0  0  0  0  0  0
    0.8680    0.5079    0.0000 C   0  0  0  0  0  0  0  0  0  0  0  0
    1.7360    0.0000    0.0000 N   0  0  0  0  0  0  0  0  0  0  0  0
    1.7360   -1.0071    0.0000 C   0  0  0  0  0  0  0  0  0  0  0  0
    0.8680   -1.5037    0.0000 C   0  0  0  0  0  0  0  0  0  0  0  0
    2.6938   -1.3184    0.0000 N   0  0  0  0  0  0  0  0  0  0  0  0
    3.2858   -0.5036    0.0000 N   0  0  0  0  0  0  0  0  0  0  0  0
    2.6938    0.3110    0.0000 C   0  0  0  0  0  0  0  0  0  0  0  0
    3.0029    1.2620    0.0000 C   0  0  0  0  0  0  0  0  0  0  0  0
    2.0518    1.5711    0.0000 F   0  0  0  0  0  0  0  0  0  0  0  0
    3.9539    0.9530    0.0000 F   0  0  0  0  0  0  0  0  0  0  0  0
    3.3119    2.2131    0.0000 F   0  0  0  0  0  0  0  0  0  0  0  0
   -1.7278   -4.0082    0.0000 C   0  0  0  0  0  0  0  0  0  0  0  0
   -2.5932   -4.5094    0.0000 C   0  0  0  0  0  0  0  0  0  0  0  0
   -3.4606   -4.0119    0.0000 C   0  0  0  0  0  0  0  0  0  0  0  0
   -4.3282   -4.5094    0.0000 C   0  0  0  0  0  0  0  0  0  0  0  0
   -5.1934   -4.0081    0.0000 F   0  0  0  0  0  0  0  0  0  0  0  0
   -4.3282   -5.5146    0.0000 C   0  0  0  0  0  0  0  0  0  0  0  0
   -5.1957   -6.0120    0.0000 F   0  0  0  0  0  0  0  0  0  0  0  0
   -3.4607   -6.0223    0.0000 C   0  0  0  0  0  0  0  0  0  0  0  0
   -2.5932   -5.5146    0.0000 C   0  0  0  0  0  0  0  0  0  0  0  0
   -1.7257   -6.0121    0.0000 F   0  0  0  0  0  0  0  0  0  0  0  0
  2  1  1  1
  2  3  1  0
  3  4  1  0
  4  5  2  0
  4  6  1  0
  6 11  1  0
  6  7  1  0
  7  8  1  0
  8  9  1  0
  9 14  1  0
  9 10  1  0
 10 11  1  0
 10 12  2  0
 12 13  1  0
 13 14  2  0
 14 15  1  0
 15 16  1  0
 15 17  1  0
 15 18  1  0
  2 19  1  0
 19 20  1  0
 20 27  1  0
 20 21  2  0
 21 22  1  0
 22 23  1  0
 22 24  2  0
 24 25  1  0
 24 26  1  0
 26 27  2  0
 27 28  1  0
M  END
>  <SMILES>  (513) 
N[C@@H](CC(=O)N1CCn2c(nnc2C(F)(F)F)C1)Cc1cc(F)c(F)cc1F

>  <CollectionName>  (513) 
chembl

>  <LOG PLASMA PROTEIN BINDING (RAT) (% unbound)>  (513) 
1.8921502779

>  <Internal ID>  (513) 


>  <Source>  (513) 
AstraZeneca

$$$$
CHEMBL129198
     RDKit          2D

 19 21  0  0  0  0  0  0  0  0999 V2000
    6.2908    3.9756    0.0000 C   0  0  0  0  0  0  0  0  0  0  0  0
    5.7908    3.1095    0.0000 N   0  0  0  0  0  0  0  0  0  0  0  0
    6.2934    2.2450    0.0000 C   0  0  0  0  0  0  0  0  0  0  0  0
    5.7909    1.3744    0.0000 C   0  0  0  0  0  0  0  0  0  0  0  0
    4.7857    1.3684    0.0000 N   0  0  0  0  0  0  0  0  0  0  0  0
    4.2883    2.2418    0.0000 C   0  0  0  0  0  0  0  0  0  0  0  0
    4.7908    3.1124    0.0000 C   0  0  0  0  0  0  0  0  0  0  0  0
    4.2858    0.5024    0.0000 C   0  0  0  0  0  0  0  0  0  0  0  0
    4.7859   -0.3636    0.0000 O   0  0  0  0  0  0  0  0  0  0  0  0
    3.2858    0.5023    0.0000 C   0  0  0  0  0  0  0  0  0  0  0  0
    2.6938   -0.3125    0.0000 C   0  0  0  0  0  0  0  0  0  0  0  0
    1.7360   -0.0012    0.0000 C   0  0  0  0  0  0  0  0  0  0  0  0
    0.8680   -0.4978    0.0000 C   0  0  0  0  0  0  0  0  0  0  0  0
    0.0000    0.0000    0.0000 C   0  0  0  0  0  0  0  0  0  0  0  0
   -0.8653   -0.5013    0.0000 Cl  0  0  0  0  0  0  0  0  0  0  0  0
    0.0000    1.0058    0.0000 C   0  0  0  0  0  0  0  0  0  0  0  0
    0.8680    1.5138    0.0000 C   0  0  0  0  0  0  0  0  0  0  0  0
    1.7360    1.0058    0.0000 C   0  0  0  0  0  0  0  0  0  0  0  0
    2.6938    1.3169    0.0000 N   0  0  0  0  0  0  0  0  0  0  0  0
  1  2  1  0
  2  7  1  0
  2  3  1  0
  3  4  1  0
  4  5  1  0
  5  6  1  0
  6  7  1  0
  5  8  1  0
  8  9  2  0
  8 10  1  0
 10 19  1  0
 10 11  2  0
 11 12  1  0
 12 18  2  0
 12 13  1  0
 13 14  2  0
 14 15  1  0
 14 16  1  0
 16 17  2  0
 17 18  1  0
 18 19  1  0
M  END
>  <SMILES>  (514) 
CN1CCN(C(=O)c2cc3cc(Cl)ccc3[nH]2)CC1

>  <CollectionName>  (514) 
chembl

>  <LOG PLASMA PROTEIN BINDING (RAT) (% unbound)>  (514) 
1.35774432518

>  <Internal ID>  (514) 


>  <Source>  (514) 
AstraZeneca

$$$$
CHEMBL1807820
     RDKit          2D

 34 37  0  0  1  0  0  0  0  0999 V2000
    1.7340    3.0138    0.0000 O   0  0  0  0  0  0  0  0  0  0  0  0
    0.8680    2.5138    0.0000 C   0  0  0  0  0  0  0  0  0  0  0  0
    0.0020    3.0138    0.0000 C   0  0  0  0  0  0  0  0  0  0  0  0
    0.0020    4.0138    0.0000 N   0  0  0  0  0  0  0  0  0  0  0  0
   -0.8641    4.5138    0.0000 C   0  0  0  0  0  0  0  0  0  0  0  0
   -0.8641    5.5138    0.0000 C   0  0  0  0  0  0  0  0  0  0  0  0
   -1.7301    6.0138    0.0000 C   0  0  0  0  0  0  0  0  0  0  0  0
   -1.7301    7.0138    0.0000 S   0  0  0  0  0  0  0  0  0  0  0  0
   -2.5961    7.5138    0.0000 C   0  0  0  0  0  0  0  0  0  0  0  0
   -2.5961    8.5138    0.0000 C   0  0  0  0  0  0  0  0  0  0  0  0
   -3.4621    9.0138    0.0000 O   0  0  0  0  0  0  0  0  0  0  0  0
   -3.4621   10.0138    0.0000 C   0  0  0  0  0  0  0  0  0  0  0  0
   -4.3282   10.5138    0.0000 C   0  0  0  0  0  0  0  0  0  0  0  0
   -4.3282   11.5138    0.0000 C   0  0  0  0  0  0  0  0  0  0  0  0
   -5.1991   12.0206    0.0000 C   0  0  0  0  0  0  0  0  0  0  0  0
   -5.1977   13.0263    0.0000 C   0  0  0  0  0  0  0  0  0  0  0  0
   -4.3254   13.5251    0.0000 C   0  0  0  0  0  0  0  0  0  0  0  0
   -3.4600   13.0239    0.0000 C   0  0  0  0  0  0  0  0  0  0  0  0
   -2.5895   13.5194    0.0000 C   0  0  0  0  0  0  0  0  0  0  0  0
   -1.7229   13.0192    0.0000 C   0  0  0  0  0  0  0  0  0  0  0  0
   -1.7256   12.0135    0.0000 C   0  0  0  0  0  0  0  0  0  0  0  0
   -2.5949   11.5081    0.0000 C   0  0  0  0  0  0  0  0  0  0  0  0
   -3.4614   12.0182    0.0000 C   0  0  0  0  0  0  0  0  0  0  0  0
    0.8680    1.5138    0.0000 C   0  0  0  0  0  0  0  0  0  0  0  0
    0.0000    1.0058    0.0000 C   0  0  0  0  0  0  0  0  0  0  0  0
    0.0000    0.0000    0.0000 C   0  0  0  0  0  0  0  0  0  0  0  0
    0.8680   -0.4978    0.0000 C   0  0  0  0  0  0  0  0  0  0  0  0
    0.8675   -1.4978    0.0000 O   0  0  0  0  0  0  0  0  0  0  0  0
    1.7360   -0.0012    0.0000 C   0  0  0  0  0  0  0  0  0  0  0  0
    2.6938   -0.3125    0.0000 N   0  0  0  0  0  0  0  0  0  0  0  0
    3.2858    0.5023    0.0000 C   0  0  0  0  0  0  0  0  0  0  0  0
    4.2858    0.5024    0.0000 O   0  0  0  0  0  0  0  0  0  0  0  0
    2.6938    1.3169    0.0000 S   0  0  0  0  0  0  0  0  0  0  0  0
    1.7360    1.0058    0.0000 C   0  0  0  0  0  0  0  0  0  0  0  0
  2  1  1  6
  2  3  1  0
  3  4  1  0
  4  5  1  0
  5  6  1  0
  6  7  1  0
  7  8  1  0
  8  9  1  0
  9 10  1  0
 10 11  1  0
 11 12  1  0
 12 13  1  0
 13 14  1  0
 14 23  1  0
 14 15  2  0
 15 16  1  0
 16 17  2  0
 17 18  1  0
 18 23  2  0
 18 19  1  0
 19 20  2  0
 20 21  1  0
 21 22  2  0
 22 23  1  0
  2 24  1  0
 24 34  1  0
 24 25  2  0
 25 26  1  0
 26 27  2  0
 27 28  1  0
 27 29  1  0
 29 34  2  0
 29 30  1  0
 30 31  1  0
 31 32  2  0
 31 33  1  0
 33 34  1  0
M  END
>  <SMILES>  (515) 
O=c1[nH]c2c(O)ccc([C@@H](O)CNCCCSCCOCCc3cccc4ccccc34)c2s1

>  <CollectionName>  (515) 
chembl

>  <LOG PLASMA PROTEIN BINDING (RAT) (% unbound)>  (515) 
-0.0861861476163

>  <Internal ID>  (515) 


>  <Source>  (515) 
AstraZeneca

$$$$
CHEMBL621
     RDKit          2D

 26 29  0  0  0  0  0  0  0  0999 V2000
   10.2913   -4.7144    0.0000 Cl  0  0  0  0  0  0  0  0  0  0  0  0
    9.2913   -4.7085    0.0000 C   0  0  0  0  0  0  0  0  0  0  0  0
    8.7862   -5.5776    0.0000 C   0  0  0  0  0  0  0  0  0  0  0  0
    7.7862   -5.5718    0.0000 C   0  0  0  0  0  0  0  0  0  0  0  0
    7.2861   -4.7057    0.0000 C   0  0  0  0  0  0  0  0  0  0  0  0
    7.7913   -3.8367    0.0000 C   0  0  0  0  0  0  0  0  0  0  0  0
    8.7964   -3.8336    0.0000 C   0  0  0  0  0  0  0  0  0  0  0  0
    7.2912   -2.9707    0.0000 N   0  0  0  0  0  0  0  0  0  0  0  0
    7.7886   -2.0972    0.0000 C   0  0  0  0  0  0  0  0  0  0  0  0
    7.2859   -1.2267    0.0000 C   0  0  0  0  0  0  0  0  0  0  0  0
    6.2859   -1.2297    0.0000 N   0  0  0  0  0  0  0  0  0  0  0  0
    5.7858   -0.3637    0.0000 C   0  0  0  0  0  0  0  0  0  0  0  0
    4.7858   -0.3637    0.0000 C   0  0  0  0  0  0  0  0  0  0  0  0
    4.2858    0.5023    0.0000 C   0  0  0  0  0  0  0  0  0  0  0  0
    3.2858    0.5022    0.0000 N   0  0  0  0  0  0  0  0  0  0  0  0
    2.6938   -0.3126    0.0000 N   0  0  0  0  0  0  0  0  0  0  0  0
    1.7360   -0.0013    0.0000 C   0  0  0  0  0  0  0  0  0  0  0  0
    0.8680   -0.4979    0.0000 C   0  0  0  0  0  0  0  0  0  0  0  0
    0.0000    0.0000    0.0000 C   0  0  0  0  0  0  0  0  0  0  0  0
    0.0000    1.0058    0.0000 C   0  0  0  0  0  0  0  0  0  0  0  0
    0.8680    1.5137    0.0000 C   0  0  0  0  0  0  0  0  0  0  0  0
    1.7360    1.0058    0.0000 N   0  0  0  0  0  0  0  0  0  0  0  0
    2.6938    1.3168    0.0000 C   0  0  0  0  0  0  0  0  0  0  0  0
    3.0029    2.2678    0.0000 O   0  0  0  0  0  0  0  0  0  0  0  0
    5.7834   -2.0943    0.0000 C   0  0  0  0  0  0  0  0  0  0  0  0
    6.2861   -2.9648    0.0000 C   0  0  0  0  0  0  0  0  0  0  0  0
  1  2  1  0
  2  7  2  0
  2  3  1  0
  3  4  2  0
  4  5  1  0
  5  6  2  0
  6  7  1  0
  6  8  1  0
  8 26  1  0
  8  9  1  0
  9 10  1  0
 10 11  1  0
 11 12  1  0
 12 13  1  0
 13 14  1  0
 14 15  1  0
 15 23  1  0
 15 16  1  0
 16 17  2  0
 17 22  1  0
 17 18  1  0
 18 19  2  0
 19 20  1  0
 20 21  2  0
 21 22  1  0
 22 23  1  0
 23 24  2  0
 11 25  1  0
 25 26  1  0
M  END
>  <SMILES>  (516) 
O=c1n(CCCN2CCN(c3cccc(Cl)c3)CC2)nc2ccccn12

>  <CollectionName>  (516) 
chembl

>  <LOG PLASMA PROTEIN BINDING (RAT) (% unbound)>  (516) 
1.09272064468

>  <Internal ID>  (516) 


>  <Source>  (516) 
AstraZeneca

$$$$
CHEMBL19236
     RDKit          2D

 16 17  0  0  0  0  0  0  0  0999 V2000
   -0.8704    2.5026    0.0000 C   0  0  0  0  0  0  0  0  0  0  0  0
   -0.8675    1.5026    0.0000 O   0  0  0  0  0  0  0  0  0  0  0  0
    0.0000    1.0052    0.0000 C   0  0  0  0  0  0  0  0  0  0  0  0
    0.8675    1.5129    0.0000 N   0  0  0  0  0  0  0  0  0  0  0  0
    1.7350    1.0052    0.0000 C   0  0  0  0  0  0  0  0  0  0  0  0
    2.6025    1.5026    0.0000 C   0  0  0  0  0  0  0  0  0  0  0  0
    1.7350    0.0000    0.0000 N   0  0  0  0  0  0  0  0  0  0  0  0
    0.8675   -0.4975    0.0000 C   0  0  0  0  0  0  0  0  0  0  0  0
    0.8675   -1.4975    0.0000 Cl  0  0  0  0  0  0  0  0  0  0  0  0
    0.0000    0.0000    0.0000 C   0  0  0  0  0  0  0  0  0  0  0  0
   -0.8653   -0.5013    0.0000 N   0  0  0  0  0  0  0  0  0  0  0  0
   -0.8638   -1.5013    0.0000 C   0  0  0  0  0  0  0  0  0  0  0  0
   -1.6752   -2.0937    0.0000 N   0  0  0  0  0  0  0  0  0  0  0  0
   -1.3600   -3.0432    0.0000 C   0  0  0  0  0  0  0  0  0  0  0  0
   -0.3599   -3.0430    0.0000 C   0  0  0  0  0  0  0  0  0  0  0  0
   -0.0532   -2.0896    0.0000 N   0  0  0  0  0  0  0  0  0  0  0  0
  1  2  1  0
  2  3  1  0
  3 10  2  0
  3  4  1  0
  4  5  2  0
  5  6  1  0
  5  7  1  0
  7  8  2  0
  8  9  1  0
  8 10  1  0
 10 11  1  0
 11 12  1  0
 12 16  1  0
 12 13  2  0
 13 14  1  0
 14 15  1  0
 15 16  1  0
M  END
>  <SMILES>  (517) 
COc1nc(C)nc(Cl)c1NC1=NCCN1

>  <CollectionName>  (517) 
chembl

>  <LOG PLASMA PROTEIN BINDING (RAT) (% unbound)>  (517) 
1.94738470168

>  <Internal ID>  (517) 


>  <Source>  (517) 
AstraZeneca

$$$$
CHEMBL109980
     RDKit          2D

 43 46  0  0  1  0  0  0  0  0999 V2000
   -2.9724    3.8632    0.0000 C   0  0  0  0  0  0  0  0  0  0  0  0
   -3.4699    2.9957    0.0000 C   0  0  0  0  0  0  0  0  0  0  0  0
   -4.3374    3.4932    0.0000 C   0  0  0  0  0  0  0  0  0  0  0  0
   -3.9674    2.1282    0.0000 N   0  0  0  0  0  0  0  0  0  0  0  0
   -2.6024    2.4982    0.0000 C   0  0  0  0  0  0  0  0  0  0  0  0
   -1.7379    3.0007    0.0000 O   0  0  0  0  0  0  0  0  0  0  0  0
   -2.5995    1.4982    0.0000 N   0  0  0  0  0  0  0  0  0  0  0  0
   -1.7320    1.0008    0.0000 C   0  0  0  0  0  0  0  0  0  0  0  0
   -1.7291    0.0008    0.0000 C   0  0  0  0  0  0  0  0  0  0  0  0
   -0.8617   -0.4967    0.0000 O   0  0  0  0  0  0  0  0  0  0  0  0
   -0.8587   -1.4967    0.0000 C   0  0  0  0  0  0  0  0  0  0  0  0
   -1.7233   -1.9992    0.0000 C   0  0  0  0  0  0  0  0  0  0  0  0
   -2.5915   -1.5030    0.0000 C   0  0  0  0  0  0  0  0  0  0  0  0
   -3.4583   -2.0018    0.0000 C   0  0  0  0  0  0  0  0  0  0  0  0
   -3.4568   -3.0070    0.0000 C   0  0  0  0  0  0  0  0  0  0  0  0
   -4.3236   -3.5057    0.0000 F   0  0  0  0  0  0  0  0  0  0  0  0
   -2.5886   -3.5134    0.0000 C   0  0  0  0  0  0  0  0  0  0  0  0
   -1.7218   -3.0044    0.0000 C   0  0  0  0  0  0  0  0  0  0  0  0
   -0.8536   -3.5006    0.0000 F   0  0  0  0  0  0  0  0  0  0  0  0
   -0.8675    1.5033    0.0000 C   0  0  0  0  0  0  0  0  0  0  0  0
   -0.8704    2.5033    0.0000 O   0  0  0  0  0  0  0  0  0  0  0  0
    0.0000    1.0058    0.0000 N   0  0  0  0  0  0  0  0  0  0  0  0
    0.0000    0.0000    0.0000 C   0  0  0  0  0  0  0  0  0  0  0  0
    0.8680   -0.4979    0.0000 C   0  0  0  0  0  0  0  0  0  0  0  0
    1.7360   -0.0013    0.0000 C   0  0  0  0  0  0  0  0  0  0  0  0
    2.6938   -0.3126    0.0000 N   0  0  0  0  0  0  0  0  0  0  0  0
    3.2858    0.5022    0.0000 N   0  0  0  0  0  0  0  0  0  0  0  0
    4.2858    0.5023    0.0000 C   0  0  0  0  0  0  0  0  0  0  0  0
    4.7859   -0.3637    0.0000 C   0  0  0  0  0  0  0  0  0  0  0  0
    5.6518    0.1363    0.0000 F   0  0  0  0  0  0  0  0  0  0  0  0
    3.9199   -0.8638    0.0000 F   0  0  0  0  0  0  0  0  0  0  0  0
    5.2859   -1.2297    0.0000 F   0  0  0  0  0  0  0  0  0  0  0  0
    2.6938    1.3168    0.0000 C   0  0  0  0  0  0  0  0  0  0  0  0
    3.0028    2.2678    0.0000 O   0  0  0  0  0  0  0  0  0  0  0  0
    1.7360    1.0058    0.0000 C   0  0  0  0  0  0  0  0  0  0  0  0
    1.9242    2.7457    0.0000 C   0  0  0  0  0  0  0  0  0  0  0  0
    1.1169    3.3359    0.0000 C   0  0  0  0  0  0  0  0  0  0  0  0
    1.2279    4.3349    0.0000 C   0  0  0  0  0  0  0  0  0  0  0  0
    0.4207    4.9252    0.0000 C   0  0  0  0  0  0  0  0  0  0  0  0
   -0.4964    4.5266    0.0000 C   0  0  0  0  0  0  0  0  0  0  0  0
   -0.6075    3.5275    0.0000 C   0  0  0  0  0  0  0  0  0  0  0  0
    0.1986    2.9271    0.0000 N   0  0  0  0  0  0  0  0  0  0  0  0
    0.8680    1.5137    0.0000 C   0  0  0  0  0  0  0  0  0  0  0  0
  1  2  1  0
  2  3  1  0
  2  4  1  0
  2  5  1  0
  5  6  2  0
  5  7  1  0
  7  8  1  0
  8  9  1  1
  9 10  1  0
 10 11  1  0
 11 12  1  0
 12 18  1  0
 12 13  2  0
 13 14  1  0
 14 15  2  0
 15 16  1  0
 15 17  1  0
 17 18  2  0
 18 19  1  0
  8 20  1  0
 20 21  2  0
 20 22  1  0
 22 43  1  0
 22 23  1  0
 23 24  1  0
 24 25  1  0
 25 35  1  0
 25 26  2  0
 26 27  1  0
 27 28  1  0
 28 29  1  0
 29 30  1  0
 29 31  1  0
 29 32  1  0
 27 33  1  0
 33 34  2  0
 33 35  1  0
 35 36  1  6
 36 37  1  0
 37 42  1  0
 37 38  2  0
 38 39  1  0
 39 40  2  0
 40 41  1  0
 41 42  2  0
 35 43  1  0
M  END
>  <SMILES>  (518) 
CC(C)(N)C(=O)N[C@H](COCc1ccc(F)cc1F)C(=O)N1CCC2=NN(CC(F)(F)F)C(=O)[C@]2(Cc2ccccn2)C1

>  <CollectionName>  (518) 
chembl

>  <LOG PLASMA PROTEIN BINDING (RAT) (% unbound)>  (518) 
1.70884563805

>  <Internal ID>  (518) 


>  <Source>  (518) 
AstraZeneca

$$$$
CHEMBL482436
     RDKit          2D

 37 41  0  0  0  0  0  0  0  0999 V2000
   -3.4675   -0.0155    0.0000 C   0  0  0  0  0  0  0  0  0  0  0  0
   -2.6000   -0.5129    0.0000 C   0  0  0  0  0  0  0  0  0  0  0  0
   -1.7355   -0.0104    0.0000 C   0  0  0  0  0  0  0  0  0  0  0  0
   -0.8680   -0.5079    0.0000 N   0  0  0  0  0  0  0  0  0  0  0  0
   -0.8680   -1.5137    0.0000 C   0  0  0  0  0  0  0  0  0  0  0  0
   -1.7333   -2.0149    0.0000 O   0  0  0  0  0  0  0  0  0  0  0  0
    0.0000   -2.0116    0.0000 N   0  0  0  0  0  0  0  0  0  0  0  0
    0.8680   -1.5150    0.0000 C   0  0  0  0  0  0  0  0  0  0  0  0
    1.8258   -1.8263    0.0000 N   0  0  0  0  0  0  0  0  0  0  0  0
    2.4178   -1.0115    0.0000 C   0  0  0  0  0  0  0  0  0  0  0  0
    1.8258   -0.1969    0.0000 N   0  0  0  0  0  0  0  0  0  0  0  0
    0.8680   -0.5079    0.0000 C   0  0  0  0  0  0  0  0  0  0  0  0
    0.0000    0.0000    0.0000 C   0  0  0  0  0  0  0  0  0  0  0  0
    0.0000    1.0000    0.0000 O   0  0  0  0  0  0  0  0  0  0  0  0
    3.4178   -1.0114    0.0000 C   0  0  0  0  0  0  0  0  0  0  0  0
    3.9191   -1.8767    0.0000 C   0  0  0  0  0  0  0  0  0  0  0  0
    4.9191   -1.8810    0.0000 C   0  0  0  0  0  0  0  0  0  0  0  0
    5.4230   -1.0112    0.0000 C   0  0  0  0  0  0  0  0  0  0  0  0
    4.9267   -0.1371    0.0000 C   0  0  0  0  0  0  0  0  0  0  0  0
    3.9216   -0.1416    0.0000 C   0  0  0  0  0  0  0  0  0  0  0  0
    6.4229   -1.0155    0.0000 S   0  0  0  0  0  0  0  0  0  0  0  0
    6.4273   -0.0156    0.0000 O   0  0  0  0  0  0  0  0  0  0  0  0
    6.4186   -2.0155    0.0000 O   0  0  0  0  0  0  0  0  0  0  0  0
    7.4229   -1.0199    0.0000 N   0  0  0  0  0  0  0  0  0  0  0  0
    7.9269   -1.8896    0.0000 C   0  0  0  0  0  0  0  0  0  0  0  0
    8.9321   -1.8940    0.0000 C   0  0  0  0  0  0  0  0  0  0  0  0
    9.4333   -1.0286    0.0000 N   0  0  0  0  0  0  0  0  0  0  0  0
   10.4333   -1.0330    0.0000 C   0  0  0  0  0  0  0  0  0  0  0  0
   10.9295   -1.9012    0.0000 C   0  0  0  0  0  0  0  0  0  0  0  0
   10.4270   -2.7658    0.0000 C   0  0  0  0  0  0  0  0  0  0  0  0
   10.9195   -3.6361    0.0000 C   0  0  0  0  0  0  0  0  0  0  0  0
   11.9247   -3.6420    0.0000 C   0  0  0  0  0  0  0  0  0  0  0  0
   12.4171   -4.5123    0.0000 Cl  0  0  0  0  0  0  0  0  0  0  0  0
   12.4374   -2.7774    0.0000 C   0  0  0  0  0  0  0  0  0  0  0  0
   11.9347   -1.9070    0.0000 C   0  0  0  0  0  0  0  0  0  0  0  0
    8.9396   -0.1590    0.0000 C   0  0  0  0  0  0  0  0  0  0  0  0
    7.9344   -0.1546    0.0000 C   0  0  0  0  0  0  0  0  0  0  0  0
  1  2  1  0
  2  3  1  0
  3  4  1  0
  4 13  1  0
  4  5  1  0
  5  6  2  0
  5  7  1  0
  7  8  1  0
  8 12  2  0
  8  9  1  0
  9 10  2  0
 10 11  1  0
 11 12  1  0
 12 13  1  0
 13 14  2  0
 10 15  1  0
 15 20  1  0
 15 16  2  0
 16 17  1  0
 17 18  2  0
 18 19  1  0
 19 20  2  0
 18 21  1  0
 21 22  2  0
 21 23  2  0
 21 24  1  0
 24 37  1  0
 24 25  1  0
 25 26  1  0
 26 27  1  0
 27 28  1  0
 28 29  1  0
 29 35  1  0
 29 30  2  0
 30 31  1  0
 31 32  2  0
 32 33  1  0
 32 34  1  0
 34 35  2  0
 27 36  1  0
 36 37  1  0
M  END
>  <SMILES>  (519) 
CCCn1c(=O)[nH]c2nc(-c3ccc(S(=O)(=O)N4CCN(Cc5ccc(Cl)cc5)CC4)cc3)[nH]c2c1=O

>  <CollectionName>  (519) 
chembl

>  <LOG PLASMA PROTEIN BINDING (RAT) (% unbound)>  (519) 
-1.22184874962

>  <Internal ID>  (519) 


>  <Source>  (519) 
AstraZeneca

$$$$
CHEMBL1761870
     RDKit          2D

 41 44  0  0  1  0  0  0  0  0999 V2000
    1.7350    8.0105    0.0000 C   0  0  0  0  0  0  0  0  0  0  0  0
    0.8675    7.5131    0.0000 C   0  0  0  0  0  0  0  0  0  0  0  0
    0.8675    6.5079    0.0000 C   0  0  0  0  0  0  0  0  0  0  0  0
   -0.0000    6.0104    0.0000 N   0  0  0  0  0  0  0  0  0  0  0  0
   -0.8675    6.5079    0.0000 C   0  0  0  0  0  0  0  0  0  0  0  0
   -0.8675    7.5131    0.0000 C   0  0  0  0  0  0  0  0  0  0  0  0
   -1.7350    8.0105    0.0000 C   0  0  0  0  0  0  0  0  0  0  0  0
   -0.0000    8.0208    0.0000 N   0  0  0  0  0  0  0  0  0  0  0  0
   -0.0000    5.0104    0.0000 C   0  0  0  0  0  0  0  0  0  0  0  0
   -0.8660    4.5104    0.0000 O   0  0  0  0  0  0  0  0  0  0  0  0
    0.8660    4.5104    0.0000 N   0  0  0  0  0  0  0  0  0  0  0  0
    0.8660    3.5104    0.0000 C   0  0  0  0  0  0  0  0  0  0  0  0
    1.7321    3.0104    0.0000 C   0  0  0  0  0  0  0  0  0  0  0  0
    2.5981    3.5104    0.0000 C   0  0  0  0  0  0  0  0  0  0  0  0
    2.5995    4.5104    0.0000 C   0  0  0  0  0  0  0  0  0  0  0  0
    3.4634    5.0142    0.0000 C   0  0  0  0  0  0  0  0  0  0  0  0
    4.3347    4.5129    0.0000 C   0  0  0  0  0  0  0  0  0  0  0  0
    5.1985    5.0167    0.0000 F   0  0  0  0  0  0  0  0  0  0  0  0
    4.3420    3.5078    0.0000 C   0  0  0  0  0  0  0  0  0  0  0  0
    3.4693    3.0091    0.0000 C   0  0  0  0  0  0  0  0  0  0  0  0
   -0.0000    3.0104    0.0000 C   0  0  0  0  0  0  0  0  0  0  0  0
   -0.8660    3.5104    0.0000 O   0  0  0  0  0  0  0  0  0  0  0  0
   -0.0000    2.0104    0.0000 N   0  0  0  0  0  0  0  0  0  0  0  0
   -0.8675    1.5027    0.0000 C   0  0  0  0  0  0  0  0  0  0  0  0
   -0.8675    0.4975    0.0000 C   0  0  0  0  0  0  0  0  0  0  0  0
    0.0000    0.0000    0.0000 C   0  0  0  0  0  0  0  0  0  0  0  0
    0.8675    0.4975    0.0000 C   0  0  0  0  0  0  0  0  0  0  0  0
    0.8675    1.5027    0.0000 C   0  0  0  0  0  0  0  0  0  0  0  0
    1.1236   -1.3417    0.0000 C   0  0  0  0  0  0  0  0  0  0  0  0
    2.1132   -1.1652    0.0000 C   0  0  0  0  0  0  0  0  0  0  0  0
    2.7553   -1.9318    0.0000 C   0  0  0  0  0  0  0  0  0  0  0  0
    2.4178   -2.8732    0.0000 C   0  0  0  0  0  0  0  0  0  0  0  0
    1.4282   -3.0497    0.0000 C   0  0  0  0  0  0  0  0  0  0  0  0
    0.7761   -2.2848    0.0000 C   0  0  0  0  0  0  0  0  0  0  0  0
   -0.6420   -0.7667    0.0000 C   0  0  0  0  0  0  0  0  0  0  0  0
   -1.6270   -0.5940    0.0000 O   0  0  0  0  0  0  0  0  0  0  0  0
   -0.2991   -1.7060    0.0000 N   0  0  0  0  0  0  0  0  0  0  0  0
   -0.9412   -2.4727    0.0000 C   0  0  0  0  0  0  0  0  0  0  0  0
   -1.5832   -3.2394    0.0000 C   0  0  0  0  0  0  0  0  0  0  0  0
   -1.7078   -1.8306    0.0000 C   0  0  0  0  0  0  0  0  0  0  0  0
   -0.1745   -3.1147    0.0000 C   0  0  0  0  0  0  0  0  0  0  0  0
  2  1  1  6
  2  8  1  0
  2  3  1  0
  3  4  1  0
  4  5  1  0
  5  6  1  0
  6  7  1  6
  6  8  1  0
  4  9  1  0
  9 10  2  0
  9 11  1  0
 11 12  1  0
 12 13  1  6
 13 14  1  0
 14 20  1  0
 14 15  2  0
 15 16  1  0
 16 17  2  0
 17 18  1  0
 17 19  1  0
 19 20  2  0
 12 21  1  0
 21 22  2  0
 21 23  1  0
 23 28  1  0
 23 24  1  0
 24 25  1  0
 25 26  1  0
 26 27  1  0
 27 28  1  0
 26 29  1  0
 29 34  1  0
 29 30  1  0
 30 31  1  0
 31 32  1  0
 32 33  1  0
 33 34  1  0
 26 35  1  0
 35 36  2  0
 35 37  1  0
 37 38  1  0
 38 39  1  0
 38 40  1  0
 38 41  1  0
M  END
>  <SMILES>  (520) 
C[C@@H]1CN(C(=O)N[C@H](Cc2ccc(F)cc2)C(=O)N2CCC(C(=O)NC(C)(C)C)(C3CCCCC3)CC2)C[C@H](C)N1

>  <CollectionName>  (520) 
chembl

>  <LOG PLASMA PROTEIN BINDING (RAT) (% unbound)>  (520) 
0.940516484933

>  <Internal ID>  (520) 


>  <Source>  (520) 
AstraZeneca

$$$$
CHEMBL1770475
     RDKit          2D

 32 35  0  0  1  0  0  0  0  0999 V2000
    4.2856    3.9664    0.0000 C   0  0  0  0  0  0  0  0  0  0  0  0
    4.7856    3.1004    0.0000 S   0  0  0  0  0  0  0  0  0  0  0  0
    4.2857    2.2343    0.0000 C   0  0  0  0  0  0  0  0  0  0  0  0
    4.7857    1.3683    0.0000 C   0  0  0  0  0  0  0  0  0  0  0  0
    4.2858    0.5023    0.0000 C   0  0  0  0  0  0  0  0  0  0  0  0
    4.7858   -0.3637    0.0000 N   0  0  0  0  0  0  0  0  0  0  0  0
    4.2859   -1.2298    0.0000 C   0  0  0  0  0  0  0  0  0  0  0  0
    3.2859   -1.2299    0.0000 O   0  0  0  0  0  0  0  0  0  0  0  0
    4.7859   -2.0958    0.0000 C   0  0  0  0  0  0  0  0  0  0  0  0
    4.2808   -2.9649    0.0000 C   0  0  0  0  0  0  0  0  0  0  0  0
    4.7809   -3.8309    0.0000 C   0  0  0  0  0  0  0  0  0  0  0  0
    5.7809   -3.8367    0.0000 C   0  0  0  0  0  0  0  0  0  0  0  0
    6.2860   -2.9676    0.0000 C   0  0  0  0  0  0  0  0  0  0  0  0
    5.7911   -2.0928    0.0000 C   0  0  0  0  0  0  0  0  0  0  0  0
    3.2858    0.5022    0.0000 C   0  0  0  0  0  0  0  0  0  0  0  0
    2.6938   -0.3126    0.0000 N   0  0  0  0  0  0  0  0  0  0  0  0
    1.7360   -0.0013    0.0000 C   0  0  0  0  0  0  0  0  0  0  0  0
    0.8680   -0.4979    0.0000 C   0  0  0  0  0  0  0  0  0  0  0  0
    0.0000    0.0000    0.0000 C   0  0  0  0  0  0  0  0  0  0  0  0
    0.0000    1.0058    0.0000 C   0  0  0  0  0  0  0  0  0  0  0  0
    0.8680    1.5137    0.0000 C   0  0  0  0  0  0  0  0  0  0  0  0
    1.7360    1.0058    0.0000 C   0  0  0  0  0  0  0  0  0  0  0  0
    2.6938    1.3168    0.0000 N   0  0  0  0  0  0  0  0  0  0  0  0
    3.0029    2.2678    0.0000 C   0  0  0  0  0  0  0  0  0  0  0  0
    2.3337    3.0110    0.0000 C   0  0  0  0  0  0  0  0  0  0  0  0
    1.3553    2.8045    0.0000 C   0  0  0  0  0  0  0  0  0  0  0  0
    0.6829    3.5448    0.0000 C   0  0  0  0  0  0  0  0  0  0  0  0
    0.9922    4.5013    0.0000 C   0  0  0  0  0  0  0  0  0  0  0  0
    1.9738    4.7174    0.0000 C   0  0  0  0  0  0  0  0  0  0  0  0
    2.6430    3.9675    0.0000 C   0  0  0  0  0  0  0  0  0  0  0  0
    0.3198    5.2415    0.0000 C   0  0  0  0  0  0  0  0  0  0  0  0
   -0.3526    5.9817    0.0000 N   0  0  0  0  0  0  0  0  0  0  0  0
  1  2  1  0
  2  3  1  0
  3  4  1  0
  4  5  1  0
  5  6  1  0
  6  7  1  0
  7  8  2  0
  7  9  1  0
  9 14  1  0
  9 10  2  0
 10 11  1  0
 11 12  2  0
 12 13  1  0
 13 14  2  0
  5 15  1  0
 15 23  1  0
 15 16  2  0
 16 17  1  0
 17 22  2  0
 17 18  1  0
 18 19  2  0
 19 20  1  0
 20 21  2  0
 21 22  1  0
 22 23  1  0
 23 24  1  0
 24 25  1  0
 25 30  1  0
 25 26  2  0
 26 27  1  0
 27 28  2  0
 28 29  1  0
 29 30  2  0
 28 31  1  0
 31 32  3  0
M  END
>  <SMILES>  (521) 
CSCCC(NC(=O)c1ccccc1)c1nc2ccccc2n1Cc1ccc(C#N)cc1

>  <CollectionName>  (521) 
chembl

>  <LOG PLASMA PROTEIN BINDING (RAT) (% unbound)>  (521) 
0.389166084365

>  <Internal ID>  (521) 


>  <Source>  (521) 
AstraZeneca

$$$$
CHEMBL1778637
     RDKit          2D

 26 27  0  0  0  0  0  0  0  0999 V2000
    6.0813    3.4874    0.0000 C   0  0  0  0  0  0  0  0  0  0  0  0
    5.2116    2.9938    0.0000 S   0  0  0  0  0  0  0  0  0  0  0  0
    4.7180    3.8635    0.0000 O   0  0  0  0  0  0  0  0  0  0  0  0
    5.7052    2.1241    0.0000 O   0  0  0  0  0  0  0  0  0  0  0  0
    4.3419    2.5002    0.0000 C   0  0  0  0  0  0  0  0  0  0  0  0
    4.3375    1.4950    0.0000 C   0  0  0  0  0  0  0  0  0  0  0  0
    3.4678    1.0013    0.0000 C   0  0  0  0  0  0  0  0  0  0  0  0
    2.6025    1.5026    0.0000 C   0  0  0  0  0  0  0  0  0  0  0  0
    2.6069    2.5078    0.0000 C   0  0  0  0  0  0  0  0  0  0  0  0
    1.7416    3.0091    0.0000 Cl  0  0  0  0  0  0  0  0  0  0  0  0
    3.4766    3.0117    0.0000 C   0  0  0  0  0  0  0  0  0  0  0  0
    1.7350    1.0052    0.0000 C   0  0  0  0  0  0  0  0  0  0  0  0
    0.8675    1.5129    0.0000 C   0  0  0  0  0  0  0  0  0  0  0  0
    0.0000    1.0052    0.0000 C   0  0  0  0  0  0  0  0  0  0  0  0
    0.0000    0.0000    0.0000 C   0  0  0  0  0  0  0  0  0  0  0  0
    0.8675   -0.4975    0.0000 C   0  0  0  0  0  0  0  0  0  0  0  0
    1.7350   -0.0000    0.0000 C   0  0  0  0  0  0  0  0  0  0  0  0
    2.6003   -0.5013    0.0000 O   0  0  0  0  0  0  0  0  0  0  0  0
    3.4670   -0.0025    0.0000 C   0  0  0  0  0  0  0  0  0  0  0  0
    4.3323   -0.5038    0.0000 C   0  0  0  0  0  0  0  0  0  0  0  0
    4.3309   -1.5038    0.0000 O   0  0  0  0  0  0  0  0  0  0  0  0
    5.1991   -0.0050    0.0000 O   0  0  0  0  0  0  0  0  0  0  0  0
   -0.8675    1.5026    0.0000 C   0  0  0  0  0  0  0  0  0  0  0  0
   -1.3649    0.6351    0.0000 F   0  0  0  0  0  0  0  0  0  0  0  0
   -0.3701    2.3701    0.0000 F   0  0  0  0  0  0  0  0  0  0  0  0
   -1.7350    2.0001    0.0000 F   0  0  0  0  0  0  0  0  0  0  0  0
  1  2  1  0
  2  3  2  0
  2  4  2  0
  2  5  1  0
  5 11  2  0
  5  6  1  0
  6  7  2  0
  7  8  1  0
  8  9  2  0
  9 10  1  0
  9 11  1  0
  8 12  1  0
 12 17  1  0
 12 13  2  0
 13 14  1  0
 14 15  2  0
 15 16  1  0
 16 17  2  0
 17 18  1  0
 18 19  1  0
 19 20  1  0
 20 21  2  0
 20 22  1  0
 14 23  1  0
 23 24  1  0
 23 25  1  0
 23 26  1  0
M  END
>  <SMILES>  (522) 
CS(=O)(=O)c1ccc(-c2cc(C(F)(F)F)ccc2OCC(=O)O)c(Cl)c1

>  <CollectionName>  (522) 
chembl

>  <LOG PLASMA PROTEIN BINDING (RAT) (% unbound)>  (522) 
0.698100545623

>  <Internal ID>  (522) 


>  <Source>  (522) 
AstraZeneca

$$$$
CHEMBL1778638
     RDKit          2D

 27 28  0  0  0  0  0  0  0  0999 V2000
    6.0886    4.4874    0.0000 C   0  0  0  0  0  0  0  0  0  0  0  0
    6.0813    3.4874    0.0000 C   0  0  0  0  0  0  0  0  0  0  0  0
    5.2116    2.9938    0.0000 S   0  0  0  0  0  0  0  0  0  0  0  0
    4.7180    3.8635    0.0000 O   0  0  0  0  0  0  0  0  0  0  0  0
    5.7052    2.1241    0.0000 O   0  0  0  0  0  0  0  0  0  0  0  0
    4.3419    2.5002    0.0000 C   0  0  0  0  0  0  0  0  0  0  0  0
    4.3375    1.4950    0.0000 C   0  0  0  0  0  0  0  0  0  0  0  0
    3.4678    1.0013    0.0000 C   0  0  0  0  0  0  0  0  0  0  0  0
    2.6025    1.5026    0.0000 C   0  0  0  0  0  0  0  0  0  0  0  0
    2.6069    2.5078    0.0000 C   0  0  0  0  0  0  0  0  0  0  0  0
    1.7416    3.0091    0.0000 Cl  0  0  0  0  0  0  0  0  0  0  0  0
    3.4766    3.0117    0.0000 C   0  0  0  0  0  0  0  0  0  0  0  0
    1.7350    1.0052    0.0000 C   0  0  0  0  0  0  0  0  0  0  0  0
    0.8675    1.5129    0.0000 C   0  0  0  0  0  0  0  0  0  0  0  0
    0.0000    1.0052    0.0000 C   0  0  0  0  0  0  0  0  0  0  0  0
    0.0000    0.0000    0.0000 C   0  0  0  0  0  0  0  0  0  0  0  0
    0.8675   -0.4975    0.0000 C   0  0  0  0  0  0  0  0  0  0  0  0
    1.7350   -0.0000    0.0000 C   0  0  0  0  0  0  0  0  0  0  0  0
    2.6003   -0.5013    0.0000 O   0  0  0  0  0  0  0  0  0  0  0  0
    3.4670   -0.0025    0.0000 C   0  0  0  0  0  0  0  0  0  0  0  0
    4.3323   -0.5038    0.0000 C   0  0  0  0  0  0  0  0  0  0  0  0
    4.3309   -1.5038    0.0000 O   0  0  0  0  0  0  0  0  0  0  0  0
    5.1991   -0.0050    0.0000 O   0  0  0  0  0  0  0  0  0  0  0  0
   -0.8675    1.5026    0.0000 C   0  0  0  0  0  0  0  0  0  0  0  0
   -1.3649    0.6351    0.0000 F   0  0  0  0  0  0  0  0  0  0  0  0
   -0.3701    2.3701    0.0000 F   0  0  0  0  0  0  0  0  0  0  0  0
   -1.7350    2.0001    0.0000 F   0  0  0  0  0  0  0  0  0  0  0  0
  1  2  1  0
  2  3  1  0
  3  4  2  0
  3  5  2  0
  3  6  1  0
  6 12  2  0
  6  7  1  0
  7  8  2  0
  8  9  1  0
  9 10  2  0
 10 11  1  0
 10 12  1  0
  9 13  1  0
 13 18  1  0
 13 14  2  0
 14 15  1  0
 15 16  2  0
 16 17  1  0
 17 18  2  0
 18 19  1  0
 19 20  1  0
 20 21  1  0
 21 22  2  0
 21 23  1  0
 15 24  1  0
 24 25  1  0
 24 26  1  0
 24 27  1  0
M  END
>  <SMILES>  (523) 
CCS(=O)(=O)c1ccc(-c2cc(C(F)(F)F)ccc2OCC(=O)O)c(Cl)c1

>  <CollectionName>  (523) 
chembl

>  <LOG PLASMA PROTEIN BINDING (RAT) (% unbound)>  (523) 
0.495544337546

>  <Internal ID>  (523) 


>  <Source>  (523) 
AstraZeneca

$$$$
CHEMBL1778644
     RDKit          2D

 24 25  0  0  0  0  0  0  0  0999 V2000
   -1.7379    3.0001    0.0000 C   0  0  0  0  0  0  0  0  0  0  0  0
   -1.7350    2.0001    0.0000 C   0  0  0  0  0  0  0  0  0  0  0  0
   -0.8675    1.5026    0.0000 S   0  0  0  0  0  0  0  0  0  0  0  0
   -0.3701    2.3701    0.0000 O   0  0  0  0  0  0  0  0  0  0  0  0
   -1.3649    0.6351    0.0000 O   0  0  0  0  0  0  0  0  0  0  0  0
    0.0000    1.0052    0.0000 C   0  0  0  0  0  0  0  0  0  0  0  0
    0.0000    0.0000    0.0000 C   0  0  0  0  0  0  0  0  0  0  0  0
    0.8675   -0.4975    0.0000 C   0  0  0  0  0  0  0  0  0  0  0  0
    1.7350   -0.0000    0.0000 C   0  0  0  0  0  0  0  0  0  0  0  0
    1.7350    1.0052    0.0000 C   0  0  0  0  0  0  0  0  0  0  0  0
    2.6025    1.5026    0.0000 F   0  0  0  0  0  0  0  0  0  0  0  0
    0.8675    1.5129    0.0000 C   0  0  0  0  0  0  0  0  0  0  0  0
    2.6003   -0.5013    0.0000 C   0  0  0  0  0  0  0  0  0  0  0  0
    3.4700    0.0026    0.0000 C   0  0  0  0  0  0  0  0  0  0  0  0
    4.3353   -0.5089    0.0000 C   0  0  0  0  0  0  0  0  0  0  0  0
    5.2050   -0.0153    0.0000 Cl  0  0  0  0  0  0  0  0  0  0  0  0
    4.3309   -1.5141    0.0000 C   0  0  0  0  0  0  0  0  0  0  0  0
    3.4612   -2.0078    0.0000 C   0  0  0  0  0  0  0  0  0  0  0  0
    2.5959   -1.5064    0.0000 C   0  0  0  0  0  0  0  0  0  0  0  0
    1.7284   -2.0039    0.0000 O   0  0  0  0  0  0  0  0  0  0  0  0
    0.8638   -1.5013    0.0000 C   0  0  0  0  0  0  0  0  0  0  0  0
   -0.0037   -1.9988    0.0000 C   0  0  0  0  0  0  0  0  0  0  0  0
   -0.0066   -2.9988    0.0000 O   0  0  0  0  0  0  0  0  0  0  0  0
   -0.8682   -1.4962    0.0000 O   0  0  0  0  0  0  0  0  0  0  0  0
  1  2  1  0
  2  3  1  0
  3  4  2  0
  3  5  2  0
  3  6  1  0
  6 12  2  0
  6  7  1  0
  7  8  2  0
  8  9  1  0
  9 10  2  0
 10 11  1  0
 10 12  1  0
  9 13  1  0
 13 19  1  0
 13 14  2  0
 14 15  1  0
 15 16  1  0
 15 17  2  0
 17 18  1  0
 18 19  2  0
 19 20  1  0
 20 21  1  0
 21 22  1  0
 22 23  2  0
 22 24  1  0
M  END
>  <SMILES>  (524) 
CCS(=O)(=O)c1ccc(-c2cc(Cl)ccc2OCC(=O)O)c(F)c1

>  <CollectionName>  (524) 
chembl

>  <LOG PLASMA PROTEIN BINDING (RAT) (% unbound)>  (524) 
0.754348335711

>  <Internal ID>  (524) 


>  <Source>  (524) 
AstraZeneca

$$$$
CHEMBL1779503
     RDKit          2D

 26 28  0  0  0  0  0  0  0  0999 V2000
    5.2161    2.9859    0.0000 Cl  0  0  0  0  0  0  0  0  0  0  0  0
    4.3464    2.4923    0.0000 C   0  0  0  0  0  0  0  0  0  0  0  0
    4.3376    1.4923    0.0000 C   0  0  0  0  0  0  0  0  0  0  0  0
    3.4700    0.9949    0.0000 C   0  0  0  0  0  0  0  0  0  0  0  0
    2.6025    1.5026    0.0000 C   0  0  0  0  0  0  0  0  0  0  0  0
    2.6025    2.5078    0.0000 C   0  0  0  0  0  0  0  0  0  0  0  0
    3.4788    3.0001    0.0000 C   0  0  0  0  0  0  0  0  0  0  0  0
    3.4877    4.0000    0.0000 C   0  0  0  0  0  0  0  0  0  0  0  0
    2.6261    4.5077    0.0000 O   0  0  0  0  0  0  0  0  0  0  0  0
    4.3581    4.4923    0.0000 N   0  0  0  0  0  0  0  0  0  0  0  0
    4.3670    5.4923    0.0000 C   0  0  0  0  0  0  0  0  0  0  0  0
    5.2374    5.9846    0.0000 C   0  0  0  0  0  0  0  0  0  0  0  0
    5.2462    6.9846    0.0000 C   0  0  0  0  0  0  0  0  0  0  0  0
    4.3787    7.4923    0.0000 C   0  0  0  0  0  0  0  0  0  0  0  0
    4.3875    8.4923    0.0000 C   0  0  0  0  0  0  0  0  0  0  0  0
    5.2550    8.9897    0.0000 C   0  0  0  0  0  0  0  0  0  0  0  0
    6.1226    8.4820    0.0000 C   0  0  0  0  0  0  0  0  0  0  0  0
    6.1226    7.4768    0.0000 C   0  0  0  0  0  0  0  0  0  0  0  0
    1.7350    1.0052    0.0000 N   0  0  0  0  0  0  0  0  0  0  0  0
    0.8675    1.5129    0.0000 N   0  0  0  0  0  0  0  0  0  0  0  0
    0.0000    1.0052    0.0000 C   0  0  0  0  0  0  0  0  0  0  0  0
    0.0000    0.0000    0.0000 C   0  0  0  0  0  0  0  0  0  0  0  0
   -0.8653   -0.5013    0.0000 O   0  0  0  0  0  0  0  0  0  0  0  0
    0.8675   -0.4975    0.0000 N   0  0  0  0  0  0  0  0  0  0  0  0
    1.7350    0.0000    0.0000 C   0  0  0  0  0  0  0  0  0  0  0  0
    2.6003   -0.5013    0.0000 O   0  0  0  0  0  0  0  0  0  0  0  0
  1  2  1  0
  2  7  2  0
  2  3  1  0
  3  4  2  0
  4  5  1  0
  5  6  2  0
  6  7  1  0
  7  8  1  0
  8  9  2  0
  8 10  1  0
 10 11  1  0
 11 12  1  0
 12 13  1  0
 13 18  1  0
 13 14  2  0
 14 15  1  0
 15 16  2  0
 16 17  1  0
 17 18  2  0
  5 19  1  0
 19 25  1  0
 19 20  1  0
 20 21  2  0
 21 22  1  0
 22 23  2  0
 22 24  1  0
 24 25  1  0
 25 26  2  0
M  END
>  <SMILES>  (525) 
O=C(NCCc1ccccc1)c1cc(-n2ncc(=O)[nH]c2=O)ccc1Cl

>  <CollectionName>  (525) 
chembl

>  <LOG PLASMA PROTEIN BINDING (RAT) (% unbound)>  (525) 
0.592176757396

>  <Internal ID>  (525) 


>  <Source>  (525) 
AstraZeneca

$$$$
CHEMBL2324342
     RDKit          2D

 35 39  0  0  1  0  0  0  0  0999 V2000
    8.1791    2.7865    0.0000 C   0  0  0  0  0  0  0  0  0  0  0  0
    8.6743    1.9178    0.0000 C   0  0  0  0  0  0  0  0  0  0  0  0
    9.6743    1.9122    0.0000 C   0  0  0  0  0  0  0  0  0  0  0  0
    8.1695    1.0545    0.0000 N   0  0  0  0  0  0  0  0  0  0  0  0
    7.1675    0.9548    0.0000 C   0  0  0  0  0  0  0  0  0  0  0  0
    6.9524   -0.0290    0.0000 C   0  0  0  0  0  0  0  0  0  0  0  0
    6.0757   -0.5219    0.0000 C   0  0  0  0  0  0  0  0  0  0  0  0
    5.2125   -0.0170    0.0000 N   0  0  0  0  0  0  0  0  0  0  0  0
    4.3437   -0.5122    0.0000 C   0  0  0  0  0  0  0  0  0  0  0  0
    4.3381   -1.5121    0.0000 C   0  0  0  0  0  0  0  0  0  0  0  0
    3.4805   -0.0073    0.0000 C   0  0  0  0  0  0  0  0  0  0  0  0
    3.4848    1.0014    0.0000 C   0  0  0  0  0  0  0  0  0  0  0  0
    2.6125    1.5125    0.0000 N   0  0  0  0  0  0  0  0  0  0  0  0
    1.7414    1.0089    0.0000 C   0  0  0  0  0  0  0  0  0  0  0  0
    0.8707    1.5185    0.0000 C   0  0  0  0  0  0  0  0  0  0  0  0
    0.0000    1.0089    0.0000 C   0  0  0  0  0  0  0  0  0  0  0  0
    0.0000    0.0000    0.0000 C   0  0  0  0  0  0  0  0  0  0  0  0
    0.8707   -0.4993    0.0000 C   0  0  0  0  0  0  0  0  0  0  0  0
    1.7371    0.0000    0.0000 C   0  0  0  0  0  0  0  0  0  0  0  0
    2.6039   -0.5053    0.0000 C   0  0  0  0  0  0  0  0  0  0  0  0
    6.0759   -1.5276    0.0000 N   0  0  0  0  0  0  0  0  0  0  0  0
    6.9442   -2.0353    0.0000 C   0  0  0  0  0  0  0  0  0  0  0  0
    7.8122   -1.5374    0.0000 N   0  0  0  0  0  0  0  0  0  0  0  0
    7.8217   -0.5375    0.0000 C   0  0  0  0  0  0  0  0  0  0  0  0
    8.5740    0.1322    0.0000 C   0  0  0  0  0  0  0  0  0  0  0  0
    9.5509   -0.0813    0.0000 O   0  0  0  0  0  0  0  0  0  0  0  0
    6.9399   -3.0353    0.0000 N   0  0  0  0  0  0  0  0  0  0  0  0
    7.8053   -3.5365    0.0000 C   0  0  0  0  0  0  0  0  0  0  0  0
    7.8011   -4.5417    0.0000 C   0  0  0  0  0  0  0  0  0  0  0  0
    6.9315   -5.0457    0.0000 N   0  0  0  0  0  0  0  0  0  0  0  0
    6.0661   -4.5344    0.0000 C   0  0  0  0  0  0  0  0  0  0  0  0
    6.0704   -3.5292    0.0000 C   0  0  0  0  0  0  0  0  0  0  0  0
    6.9273   -6.0457    0.0000 C   0  0  0  0  0  0  0  0  0  0  0  0
    7.7912   -6.5493    0.0000 O   0  0  0  0  0  0  0  0  0  0  0  0
    6.0591   -6.5420    0.0000 C   0  0  0  0  0  0  0  0  0  0  0  0
  1  2  1  0
  2  3  1  0
  2  4  1  0
  4 25  1  0
  4  5  1  0
  5  6  1  0
  6 24  2  0
  6  7  1  0
  7  8  1  0
  8  9  1  0
  9 10  1  6
  9 11  1  0
 11 20  1  0
 11 12  2  0
 12 13  1  0
 13 14  2  0
 14 19  1  0
 14 15  1  0
 15 16  2  0
 16 17  1  0
 17 18  2  0
 18 19  1  0
 19 20  2  0
  7 21  2  0
 21 22  1  0
 22 23  2  0
 23 24  1  0
 24 25  1  0
 25 26  2  0
 22 27  1  0
 27 32  1  0
 27 28  1  0
 28 29  1  0
 29 30  1  0
 30 31  1  0
 31 32  1  0
 30 33  1  0
 33 34  2  0
 33 35  1  0
M  END
>  <SMILES>  (526) 
CC(=O)N1CCN(c2nc(N[C@H](C)c3cnc4ccccc4c3)c3c(n2)C(=O)N(C(C)C)C3)CC1

>  <CollectionName>  (526) 
chembl

>  <LOG PLASMA PROTEIN BINDING (RAT) (% unbound)>  (526) 
0.0755469613925

>  <Internal ID>  (526) 


>  <Source>  (526) 
AstraZeneca

$$$$
CHEMBL2325645
     RDKit          2D

 30 33  0  0  0  0  0  0  0  0999 V2000
   -0.3610   -3.4520    0.0000 F   0  0  0  0  0  0  0  0  0  0  0  0
    0.6334   -3.5579    0.0000 C   0  0  0  0  0  0  0  0  0  0  0  0
    1.0383   -4.4779    0.0000 C   0  0  0  0  0  0  0  0  0  0  0  0
    2.0387   -4.5754    0.0000 C   0  0  0  0  0  0  0  0  0  0  0  0
    2.6282   -3.7612    0.0000 C   0  0  0  0  0  0  0  0  0  0  0  0
    3.6231   -3.8627    0.0000 F   0  0  0  0  0  0  0  0  0  0  0  0
    2.2173   -2.8495    0.0000 C   0  0  0  0  0  0  0  0  0  0  0  0
    1.2229   -2.7437    0.0000 C   0  0  0  0  0  0  0  0  0  0  0  0
    0.8160   -1.8302    0.0000 O   0  0  0  0  0  0  0  0  0  0  0  0
   -0.1785   -1.7259    0.0000 C   0  0  0  0  0  0  0  0  0  0  0  0
   -0.7674   -2.5342    0.0000 C   0  0  0  0  0  0  0  0  0  0  0  0
   -1.7624   -2.4341    0.0000 C   0  0  0  0  0  0  0  0  0  0  0  0
   -2.1727   -1.5165    0.0000 C   0  0  0  0  0  0  0  0  0  0  0  0
   -3.1677   -1.4165    0.0000 Cl  0  0  0  0  0  0  0  0  0  0  0  0
   -1.5880   -0.6989    0.0000 C   0  0  0  0  0  0  0  0  0  0  0  0
   -0.5889   -0.8082    0.0000 C   0  0  0  0  0  0  0  0  0  0  0  0
    0.0000    0.0000    0.0000 C   0  0  0  0  0  0  0  0  0  0  0  0
   -0.3065    0.9519    0.0000 C   0  0  0  0  0  0  0  0  0  0  0  0
    0.5008    1.5428    0.0000 N   0  0  0  0  0  0  0  0  0  0  0  0
    1.3133    0.9519    0.0000 N   0  0  0  0  0  0  0  0  0  0  0  0
    1.0015    0.0000    0.0000 C   0  0  0  0  0  0  0  0  0  0  0  0
    2.4496   -5.4871    0.0000 S   0  0  0  0  0  0  0  0  0  0  0  0
    1.5379   -5.8980    0.0000 O   0  0  0  0  0  0  0  0  0  0  0  0
    3.3613   -5.0762    0.0000 O   0  0  0  0  0  0  0  0  0  0  0  0
    2.8605   -6.3988    0.0000 N   0  0  0  0  0  0  0  0  0  0  0  0
    3.8555   -6.4987    0.0000 C   0  0  0  0  0  0  0  0  0  0  0  0
    4.5189   -5.7506    0.0000 N   0  0  0  0  0  0  0  0  0  0  0  0
    5.4359   -6.1534    0.0000 C   0  0  0  0  0  0  0  0  0  0  0  0
    5.3385   -7.1502    0.0000 N   0  0  0  0  0  0  0  0  0  0  0  0
    4.3570   -7.3643    0.0000 S   0  0  0  0  0  0  0  0  0  0  0  0
  1  2  1  0
  2  8  2  0
  2  3  1  0
  3  4  2  0
  4  5  1  0
  5  6  1  0
  5  7  2  0
  7  8  1  0
  8  9  1  0
  9 10  1  0
 10 16  1  0
 10 11  2  0
 11 12  1  0
 12 13  2  0
 13 14  1  0
 13 15  1  0
 15 16  2  0
 16 17  1  0
 17 21  2  0
 17 18  1  0
 18 19  2  0
 19 20  1  0
 20 21  1  0
  4 22  1  0
 22 23  2  0
 22 24  2  0
 22 25  1  0
 25 26  1  0
 26 30  1  0
 26 27  2  0
 27 28  1  0
 28 29  2  0
 29 30  1  0
M  END
>  <SMILES>  (527) 
O=S(=O)(Nc1ncns1)c1cc(F)c(Oc2ccc(Cl)cc2-c2cn[nH]c2)cc1F

>  <CollectionName>  (527) 
chembl

>  <LOG PLASMA PROTEIN BINDING (RAT) (% unbound)>  (527) 
-1.0

>  <Internal ID>  (527) 


>  <Source>  (527) 
AstraZeneca

$$$$
CHEMBL115
     RDKit          2D

 45 49  0  0  1  0  0  0  0  0999 V2000
    8.4422   -0.9005    0.0000 C   0  0  0  0  0  0  0  0  0  0  0  0
    7.5784   -0.3967    0.0000 C   0  0  0  0  0  0  0  0  0  0  0  0
    7.0746   -1.2606    0.0000 C   0  0  0  0  0  0  0  0  0  0  0  0
    8.0822    0.4671    0.0000 C   0  0  0  0  0  0  0  0  0  0  0  0
    6.7146    0.1071    0.0000 N   0  0  0  0  0  0  0  0  0  0  0  0
    5.8464   -0.3891    0.0000 C   0  0  0  0  0  0  0  0  0  0  0  0
    5.8420   -1.3891    0.0000 O   0  0  0  0  0  0  0  0  0  0  0  0
    4.3347    0.4925    0.0000 C   0  0  0  0  0  0  0  0  0  0  0  0
    3.4634   -0.0088    0.0000 C   0  0  0  0  0  0  0  0  0  0  0  0
    2.5995    0.4950    0.0000 N   0  0  0  0  0  0  0  0  0  0  0  0
    1.7328   -0.0038    0.0000 C   0  0  0  0  0  0  0  0  0  0  0  0
    0.8675    0.4975    0.0000 C   0  0  0  0  0  0  0  0  0  0  0  0
    0.0000    0.0000    0.0000 C   0  0  0  0  0  0  0  0  0  0  0  0
   -0.8675    0.4975    0.0000 C   0  0  0  0  0  0  0  0  0  0  0  0
   -0.8675    1.5027    0.0000 C   0  0  0  0  0  0  0  0  0  0  0  0
   -0.0000    2.0104    0.0000 N   0  0  0  0  0  0  0  0  0  0  0  0
    0.8675    1.5027    0.0000 C   0  0  0  0  0  0  0  0  0  0  0  0
    2.5981    1.4950    0.0000 C   0  0  0  0  0  0  0  0  0  0  0  0
    3.4694    1.9964    0.0000 C   0  0  0  0  0  0  0  0  0  0  0  0
    4.3421    1.4977    0.0000 N   0  0  0  0  0  0  0  0  0  0  0  0
    5.8589    2.3705    0.0000 C   0  0  0  0  0  0  0  0  0  0  0  0
    6.7242    1.8692    0.0000 C   0  0  0  0  0  0  0  0  0  0  0  0
    6.7227    0.8692    0.0000 O   0  0  0  0  0  0  0  0  0  0  0  0
    7.5909    2.3679    0.0000 C   0  0  0  0  0  0  0  0  0  0  0  0
    7.5924    3.3679    0.0000 C   0  0  0  0  0  0  0  0  0  0  0  0
    6.7271    3.8692    0.0000 C   0  0  0  0  0  0  0  0  0  0  0  0
    6.7285    4.8692    0.0000 C   0  0  0  0  0  0  0  0  0  0  0  0
    5.8572    5.3705    0.0000 C   0  0  0  0  0  0  0  0  0  0  0  0
    5.8586    6.3705    0.0000 C   0  0  0  0  0  0  0  0  0  0  0  0
    6.7225    6.8744    0.0000 C   0  0  0  0  0  0  0  0  0  0  0  0
    7.5938    6.3731    0.0000 C   0  0  0  0  0  0  0  0  0  0  0  0
    7.6012    5.3679    0.0000 C   0  0  0  0  0  0  0  0  0  0  0  0
    8.4591    3.8667    0.0000 C   0  0  0  0  0  0  0  0  0  0  0  0
    8.4606    4.8667    0.0000 O   0  0  0  0  0  0  0  0  0  0  0  0
    9.3244    3.3654    0.0000 N   0  0  0  0  0  0  0  0  0  0  0  0
   10.1912    3.8642    0.0000 C   0  0  0  0  0  0  0  0  0  0  0  0
   11.1104    3.4531    0.0000 C   0  0  0  0  0  0  0  0  0  0  0  0
   11.3168    2.4746    0.0000 O   0  0  0  0  0  0  0  0  0  0  0  0
   11.7855    4.2006    0.0000 C   0  0  0  0  0  0  0  0  0  0  0  0
   11.2831    5.0735    0.0000 C   0  0  0  0  0  0  0  0  0  0  0  0
   11.5898    6.0253    0.0000 C   0  0  0  0  0  0  0  0  0  0  0  0
   10.9234    6.7718    0.0000 C   0  0  0  0  0  0  0  0  0  0  0  0
    9.9393    6.5642    0.0000 C   0  0  0  0  0  0  0  0  0  0  0  0
    9.6216    5.6100    0.0000 C   0  0  0  0  0  0  0  0  0  0  0  0
   10.2977    4.8656    0.0000 C   0  0  0  0  0  0  0  0  0  0  0  0
  1  2  1  0
  2  3  1  0
  2  4  1  0
  2  5  1  0
  5  6  1  0
  6  7  2  0
  8  6  1  6
  8 20  1  0
  8  9  1  0
  9 10  1  0
 10 11  1  0
 11 12  1  0
 12 17  1  0
 12 13  2  0
 13 14  1  0
 14 15  2  0
 15 16  1  0
 16 17  2  0
 10 18  1  0
 18 19  1  0
 19 20  1  0
 20 21  1  0
 21 22  1  0
 22 23  1  6
 22 24  1  0
 25 24  1  1
 25 26  1  0
 26 27  1  0
 27 32  1  0
 27 28  2  0
 28 29  1  0
 29 30  2  0
 30 31  1  0
 31 32  2  0
 25 33  1  0
 33 34  2  0
 33 35  1  0
 36 35  1  1
 36 45  1  0
 36 37  1  0
 37 38  1  1
 37 39  1  0
 39 40  1  0
 40 45  2  0
 40 41  1  0
 41 42  2  0
 42 43  1  0
 43 44  2  0
 44 45  1  0
M  END
>  <SMILES>  (528) 
CC(C)(C)NC(=O)[C@@H]1CN(Cc2cccnc2)CCN1C[C@@H](O)C[C@@H](Cc1ccccc1)C(=O)N[C@H]1c2ccccc2C[C@H]1O

>  <CollectionName>  (528) 
chembl

>  <LOG PLASMA PROTEIN BINDING (RAT) (% unbound)>  (528) 
1.32654066852

>  <Internal ID>  (528) 


>  <Source>  (528) 
AstraZeneca

$$$$
CHEMBL571
     RDKit          2D

 19 20  0  0  1  0  0  0  0  0999 V2000
    5.2050    4.0103    0.0000 C   0  0  0  0  0  0  0  0  0  0  0  0
    4.3375    4.5077    0.0000 C   0  0  0  0  0  0  0  0  0  0  0  0
    4.3345    5.5077    0.0000 C   0  0  0  0  0  0  0  0  0  0  0  0
    3.4670    6.0052    0.0000 O   0  0  0  0  0  0  0  0  0  0  0  0
    5.1991    6.0103    0.0000 O   0  0  0  0  0  0  0  0  0  0  0  0
    3.4729    4.0052    0.0000 C   0  0  0  0  0  0  0  0  0  0  0  0
    2.6024    4.5078    0.0000 C   0  0  0  0  0  0  0  0  0  0  0  0
    1.7378    4.0053    0.0000 C   0  0  0  0  0  0  0  0  0  0  0  0
    1.7349    3.0052    0.0000 C   0  0  0  0  0  0  0  0  0  0  0  0
    2.6054    2.5026    0.0000 C   0  0  0  0  0  0  0  0  0  0  0  0
    3.4789    3.0001    0.0000 C   0  0  0  0  0  0  0  0  0  0  0  0
    2.6025    1.5026    0.0000 C   0  0  0  0  0  0  0  0  0  0  0  0
    3.4670    1.0001    0.0000 O   0  0  0  0  0  0  0  0  0  0  0  0
    1.7350    1.0052    0.0000 C   0  0  0  0  0  0  0  0  0  0  0  0
    1.7350   -0.0000    0.0000 C   0  0  0  0  0  0  0  0  0  0  0  0
    0.8675   -0.4975    0.0000 C   0  0  0  0  0  0  0  0  0  0  0  0
    0.0000    0.0000    0.0000 C   0  0  0  0  0  0  0  0  0  0  0  0
    0.0000    1.0052    0.0000 C   0  0  0  0  0  0  0  0  0  0  0  0
    0.8675    1.5129    0.0000 C   0  0  0  0  0  0  0  0  0  0  0  0
  1  2  1  0
  2  3  1  0
  3  4  2  0
  3  5  1  0
  2  6  1  0
  6 11  2  0
  6  7  1  0
  7  8  2  0
  8  9  1  0
  9 10  2  0
 10 11  1  0
 10 12  1  0
 12 13  2  0
 12 14  1  0
 14 19  1  0
 14 15  2  0
 15 16  1  0
 16 17  2  0
 17 18  1  0
 18 19  2  0
M  END
>  <SMILES>  (529) 
CC(C(=O)O)c1cccc(C(=O)c2ccccc2)c1

>  <CollectionName>  (529) 
chembl

>  <LOG PLASMA PROTEIN BINDING (RAT) (% unbound)>  (529) 
-0.193820026016

>  <Internal ID>  (529) 


>  <Source>  (529) 
AstraZeneca

$$$$
CHEMBL2204343
     RDKit          2D

 26 28  0  0  0  0  0  0  0  0999 V2000
    0.6565    2.7740    0.0000 O   0  0  0  0  0  0  0  0  0  0  0  0
    0.0101    2.0110    0.0000 Si  0  0  0  0  0  4  0  0  0  0  0  0
   -0.8584    1.5098    0.0000 C   0  0  0  0  0  0  0  0  0  0  0  0
   -0.8635    0.5043    0.0000 C   0  0  0  0  0  0  0  0  0  0  0  0
    0.0000    0.0000    0.0000 N   0  0  0  0  0  0  0  0  0  0  0  0
   -0.0064   -1.0000    0.0000 C   0  0  0  0  0  0  0  0  0  0  0  0
    0.8564   -1.5055    0.0000 C   0  0  0  0  0  0  0  0  0  0  0  0
    0.8501   -2.5055    0.0000 C   0  0  0  0  0  0  0  0  0  0  0  0
    1.7129   -3.0110    0.0000 C   0  0  0  0  0  0  0  0  0  0  0  0
    2.5821   -2.5165    0.0000 O   0  0  0  0  0  0  0  0  0  0  0  0
    1.7065   -4.0110    0.0000 C   0  0  0  0  0  0  0  0  0  0  0  0
    0.8380   -4.5067    0.0000 C   0  0  0  0  0  0  0  0  0  0  0  0
    0.8273   -5.5067    0.0000 C   0  0  0  0  0  0  0  0  0  0  0  0
    1.6939   -6.0161    0.0000 C   0  0  0  0  0  0  0  0  0  0  0  0
    1.6831   -7.0160    0.0000 F   0  0  0  0  0  0  0  0  0  0  0  0
    2.5712   -5.5255    0.0000 C   0  0  0  0  0  0  0  0  0  0  0  0
    2.5731   -4.5204    0.0000 C   0  0  0  0  0  0  0  0  0  0  0  0
    0.8740    0.4956    0.0000 C   0  0  0  0  0  0  0  0  0  0  0  0
    0.8791    1.5011    0.0000 C   0  0  0  0  0  0  0  0  0  0  0  0
   -0.6308    2.7786    0.0000 C   0  0  0  0  0  0  0  0  0  0  0  0
   -0.2878    3.7180    0.0000 C   0  0  0  0  0  0  0  0  0  0  0  0
   -0.9254    4.4884    0.0000 C   0  0  0  0  0  0  0  0  0  0  0  0
   -1.9160    4.3178    0.0000 C   0  0  0  0  0  0  0  0  0  0  0  0
   -2.5535    5.0882    0.0000 Cl  0  0  0  0  0  0  0  0  0  0  0  0
   -2.2690    3.3767    0.0000 C   0  0  0  0  0  0  0  0  0  0  0  0
   -1.6214    2.6080    0.0000 C   0  0  0  0  0  0  0  0  0  0  0  0
  1  2  1  0
  2 19  1  0
  2  3  1  0
  3  4  1  0
  4  5  1  0
  5  6  1  0
  6  7  1  0
  7  8  1  0
  8  9  1  0
  9 10  2  0
  9 11  1  0
 11 17  1  0
 11 12  2  0
 12 13  1  0
 13 14  2  0
 14 15  1  0
 14 16  1  0
 16 17  2  0
  5 18  1  0
 18 19  1  0
  2 20  1  0
 20 26  1  0
 20 21  2  0
 21 22  1  0
 22 23  2  0
 23 24  1  0
 23 25  1  0
 25 26  2  0
M  END
>  <SMILES>  (530) 
O=C(CCCN1CC[Si](O)(c2ccc(Cl)cc2)CC1)c1ccc(F)cc1

>  <CollectionName>  (530) 
chembl

>  <LOG PLASMA PROTEIN BINDING (RAT) (% unbound)>  (530) 
0.735598899698

>  <Internal ID>  (530) 


>  <Source>  (530) 
AstraZeneca

$$$$
CHEMBL2216859
     RDKit          2D

 33 38  0  0  0  0  0  0  0  0999 V2000
   -5.4129   -7.8747    0.0000 C   0  0  0  0  0  0  0  0  0  0  0  0
   -5.8176   -6.9603    0.0000 C   0  0  0  0  0  0  0  0  0  0  0  0
   -6.8119   -6.8537    0.0000 C   0  0  0  0  0  0  0  0  0  0  0  0
   -5.2281   -6.1526    0.0000 N   0  0  0  0  0  0  0  0  0  0  0  0
   -4.2281   -6.2539    0.0000 C   0  0  0  0  0  0  0  0  0  0  0  0
   -3.6355   -5.4419    0.0000 C   0  0  0  0  0  0  0  0  0  0  0  0
   -4.0430   -4.5286    0.0000 N   0  0  0  0  0  0  0  0  0  0  0  0
   -3.4535   -3.7209    0.0000 C   0  0  0  0  0  0  0  0  0  0  0  0
   -2.4592   -3.8275    0.0000 C   0  0  0  0  0  0  0  0  0  0  0  0
   -1.7905   -3.0834    0.0000 O   0  0  0  0  0  0  0  0  0  0  0  0
   -0.8739   -3.4948    0.0000 C   0  0  0  0  0  0  0  0  0  0  0  0
   -0.9835   -4.4905    0.0000 N   0  0  0  0  0  0  0  0  0  0  0  0
   -1.9637   -4.6962    0.0000 C   0  0  0  0  0  0  0  0  0  0  0  0
   -0.0059   -2.9983    0.0000 C   0  0  0  0  0  0  0  0  0  0  0  0
   -0.0053   -1.9977    0.0000 C   0  0  0  0  0  0  0  0  0  0  0  0
    0.8675   -1.4978    0.0000 C   0  0  0  0  0  0  0  0  0  0  0  0
    1.7397   -1.9985    0.0000 C   0  0  0  0  0  0  0  0  0  0  0  0
    1.7302   -3.0042    0.0000 C   0  0  0  0  0  0  0  0  0  0  0  0
    2.4763   -3.6808    0.0000 N   0  0  0  0  0  0  0  0  0  0  0  0
    2.0634   -4.5994    0.0000 N   0  0  0  0  0  0  0  0  0  0  0  0
    1.0622   -4.4906    0.0000 C   0  0  0  0  0  0  0  0  0  0  0  0
    0.8564   -3.5047    0.0000 C   0  0  0  0  0  0  0  0  0  0  0  0
    0.8680   -0.4978    0.0000 C   0  0  0  0  0  0  0  0  0  0  0  0
    0.0000    0.0000    0.0000 C   0  0  0  0  0  0  0  0  0  0  0  0
    0.0000    1.0058    0.0000 C   0  0  0  0  0  0  0  0  0  0  0  0
    0.8680    1.5138    0.0000 C   0  0  0  0  0  0  0  0  0  0  0  0
    1.7360    1.0058    0.0000 C   0  0  0  0  0  0  0  0  0  0  0  0
    2.6938    1.3169    0.0000 N   0  0  0  0  0  0  0  0  0  0  0  0
    3.2858    0.5023    0.0000 C   0  0  0  0  0  0  0  0  0  0  0  0
    2.6938   -0.3125    0.0000 C   0  0  0  0  0  0  0  0  0  0  0  0
    1.7360   -0.0012    0.0000 C   0  0  0  0  0  0  0  0  0  0  0  0
   -5.0370   -4.4191    0.0000 C   0  0  0  0  0  0  0  0  0  0  0  0
   -5.6296   -5.2311    0.0000 C   0  0  0  0  0  0  0  0  0  0  0  0
  1  2  1  0
  2  3  1  0
  2  4  1  0
  4 33  1  0
  4  5  1  0
  5  6  1  0
  6  7  1  0
  7  8  1  0
  8  9  1  0
  9 13  2  0
  9 10  1  0
 10 11  1  0
 11 12  2  0
 12 13  1  0
 11 14  1  0
 14 22  1  0
 14 15  2  0
 15 16  1  0
 16 17  2  0
 17 18  1  0
 18 22  2  0
 18 19  1  0
 19 20  1  0
 20 21  2  0
 21 22  1  0
 16 23  1  0
 23 31  1  0
 23 24  2  0
 24 25  1  0
 25 26  2  0
 26 27  1  0
 27 31  2  0
 27 28  1  0
 28 29  1  0
 29 30  2  0
 30 31  1  0
  7 32  1  0
 32 33  1  0
M  END
>  <SMILES>  (531) 
CC(C)N1CCN(Cc2cnc(-c3cc(-c4cccc5[nH]ccc45)cc4[nH]ncc34)o2)CC1

>  <CollectionName>  (531) 
chembl

>  <LOG PLASMA PROTEIN BINDING (RAT) (% unbound)>  (531) 
0.553883026644

>  <Internal ID>  (531) 


>  <Source>  (531) 
AstraZeneca

$$$$
CHEMBL14762
     RDKit          2D

 26 28  0  0  1  0  0  0  0  0999 V2000
   -0.8638   -4.5137    0.0000 C   0  0  0  0  0  0  0  0  0  0  0  0
   -0.8652   -3.5137    0.0000 C   0  0  0  0  0  0  0  0  0  0  0  0
   -1.7319   -3.0149    0.0000 C   0  0  0  0  0  0  0  0  0  0  0  0
   -2.5972   -3.5161    0.0000 C   0  0  0  0  0  0  0  0  0  0  0  0
   -2.5958   -4.5161    0.0000 O   0  0  0  0  0  0  0  0  0  0  0  0
   -1.7333   -2.0149    0.0000 N   0  0  0  0  0  0  0  0  0  0  0  0
   -0.8680   -1.5137    0.0000 C   0  0  0  0  0  0  0  0  0  0  0  0
   -0.8680   -0.5079    0.0000 N   0  0  0  0  0  0  0  0  0  0  0  0
    0.0000    0.0000    0.0000 C   0  0  0  0  0  0  0  0  0  0  0  0
    0.0000    1.0000    0.0000 N   0  0  0  0  0  0  0  0  0  0  0  0
   -0.8660    1.5000    0.0000 C   0  0  0  0  0  0  0  0  0  0  0  0
   -0.8660    2.5000    0.0000 C   0  0  0  0  0  0  0  0  0  0  0  0
   -1.7380    3.0000    0.0000 C   0  0  0  0  0  0  0  0  0  0  0  0
   -1.7381    4.0001    0.0000 C   0  0  0  0  0  0  0  0  0  0  0  0
   -0.8750    4.5051    0.0000 C   0  0  0  0  0  0  0  0  0  0  0  0
   -0.0030    4.0051    0.0000 C   0  0  0  0  0  0  0  0  0  0  0  0
    0.0059    3.0000    0.0000 C   0  0  0  0  0  0  0  0  0  0  0  0
    0.8680   -0.5079    0.0000 C   0  0  0  0  0  0  0  0  0  0  0  0
    1.8258   -0.1969    0.0000 N   0  0  0  0  0  0  0  0  0  0  0  0
    2.4178   -1.0115    0.0000 C   0  0  0  0  0  0  0  0  0  0  0  0
    1.8258   -1.8263    0.0000 N   0  0  0  0  0  0  0  0  0  0  0  0
    2.1348   -2.7774    0.0000 C   0  0  0  0  0  0  0  0  0  0  0  0
    3.1129   -2.9853    0.0000 C   0  0  0  0  0  0  0  0  0  0  0  0
    1.4656   -3.5205    0.0000 C   0  0  0  0  0  0  0  0  0  0  0  0
    0.8680   -1.5150    0.0000 C   0  0  0  0  0  0  0  0  0  0  0  0
   -0.0000   -2.0116    0.0000 N   0  0  0  0  0  0  0  0  0  0  0  0
  1  2  1  0
  3  2  1  6
  3  4  1  0
  4  5  1  0
  3  6  1  0
  6  7  1  0
  7 26  2  0
  7  8  1  0
  8  9  2  0
  9 10  1  0
 10 11  1  0
 11 12  1  0
 12 17  1  0
 12 13  2  0
 13 14  1  0
 14 15  2  0
 15 16  1  0
 16 17  2  0
  9 18  1  0
 18 25  2  0
 18 19  1  0
 19 20  2  0
 20 21  1  0
 21 22  1  0
 22 23  1  0
 22 24  1  0
 21 25  1  0
 25 26  1  0
M  END
>  <SMILES>  (532) 
CC[C@H](CO)Nc1nc(NCc2ccccc2)c2ncn(C(C)C)c2n1

>  <CollectionName>  (532) 
chembl

>  <LOG PLASMA PROTEIN BINDING (RAT) (% unbound)>  (532) 
0.857332496431

>  <Internal ID>  (532) 


>  <Source>  (532) 
AstraZeneca

$$$$
CHEMBL48966
     RDKit          2D

 20 23  0  0  0  0  0  0  0  0999 V2000
    4.7859   -1.3695    0.0000 C   0  0  0  0  0  0  0  0  0  0  0  0
    4.2858   -0.5035    0.0000 C   0  0  0  0  0  0  0  0  0  0  0  0
    3.2858   -0.5036    0.0000 C   0  0  0  0  0  0  0  0  0  0  0  0
    2.6938   -1.3184    0.0000 N   0  0  0  0  0  0  0  0  0  0  0  0
    1.7360   -1.0071    0.0000 C   0  0  0  0  0  0  0  0  0  0  0  0
    0.8680   -1.5037    0.0000 C   0  0  0  0  0  0  0  0  0  0  0  0
    0.0000   -1.0058    0.0000 C   0  0  0  0  0  0  0  0  0  0  0  0
    0.0000    0.0000    0.0000 C   0  0  0  0  0  0  0  0  0  0  0  0
    0.8680    0.5079    0.0000 C   0  0  0  0  0  0  0  0  0  0  0  0
    1.7360   -0.0000    0.0000 C   0  0  0  0  0  0  0  0  0  0  0  0
    2.6938    0.3110    0.0000 N   0  0  0  0  0  0  0  0  0  0  0  0
    5.7859   -1.3695    0.0000 C   0  0  0  0  0  0  0  0  0  0  0  0
    6.3779   -0.5547    0.0000 N   0  0  0  0  0  0  0  0  0  0  0  0
    7.3357   -0.8660    0.0000 C   0  0  0  0  0  0  0  0  0  0  0  0
    8.2037   -0.3694    0.0000 C   0  0  0  0  0  0  0  0  0  0  0  0
    9.0717   -0.8673    0.0000 C   0  0  0  0  0  0  0  0  0  0  0  0
    9.0717   -1.8731    0.0000 C   0  0  0  0  0  0  0  0  0  0  0  0
    8.2037   -2.3810    0.0000 C   0  0  0  0  0  0  0  0  0  0  0  0
    7.3357   -1.8731    0.0000 C   0  0  0  0  0  0  0  0  0  0  0  0
    6.3779   -2.1841    0.0000 N   0  0  0  0  0  0  0  0  0  0  0  0
  1  2  1  0
  2  3  1  0
  3 11  1  0
  3  4  2  0
  4  5  1  0
  5 10  2  0
  5  6  1  0
  6  7  2  0
  7  8  1  0
  8  9  2  0
  9 10  1  0
 10 11  1  0
  1 12  1  0
 12 20  1  0
 12 13  2  0
 13 14  1  0
 14 19  2  0
 14 15  1  0
 15 16  2  0
 16 17  1  0
 17 18  2  0
 18 19  1  0
 19 20  1  0
M  END
>  <SMILES>  (533) 
c1ccc2[nH]c(CCc3nc4ccccc4[nH]3)nc2c1

>  <CollectionName>  (533) 
chembl

>  <LOG PLASMA PROTEIN BINDING (RAT) (% unbound)>  (533) 
1.30276370847

>  <Internal ID>  (533) 


>  <Source>  (533) 
AstraZeneca

$$$$
CHEMBL12
     RDKit          2D

 20 22  0  0  0  0  0  0  0  0999 V2000
    1.6379    3.0716    0.0000 C   0  0  0  0  0  0  0  0  0  0  0  0
    2.0794    2.1743    0.0000 N   0  0  0  0  0  0  0  0  0  0  0  0
    3.0873    2.1814    0.0000 C   0  0  0  0  0  0  0  0  0  0  0  0
    3.5119    3.0868    0.0000 O   0  0  0  0  0  0  0  0  0  0  0  0
    3.7246    1.4039    0.0000 C   0  0  0  0  0  0  0  0  0  0  0  0
    3.5069    0.4226    0.0000 N   0  0  0  0  0  0  0  0  0  0  0  0
    2.6022   -0.0243    0.0000 C   0  0  0  0  0  0  0  0  0  0  0  0
    2.6132   -1.0242    0.0000 C   0  0  0  0  0  0  0  0  0  0  0  0
    3.4907   -1.5146    0.0000 C   0  0  0  0  0  0  0  0  0  0  0  0
    3.5017   -2.5146    0.0000 C   0  0  0  0  0  0  0  0  0  0  0  0
    2.6442   -3.0292    0.0000 C   0  0  0  0  0  0  0  0  0  0  0  0
    1.7668   -2.5388    0.0000 C   0  0  0  0  0  0  0  0  0  0  0  0
    1.7468   -1.5338    0.0000 C   0  0  0  0  0  0  0  0  0  0  0  0
    1.6906    0.4013    0.0000 C   0  0  0  0  0  0  0  0  0  0  0  0
    0.9648   -0.2906    0.0000 C   0  0  0  0  0  0  0  0  0  0  0  0
    0.0000    0.0000    0.0000 C   0  0  0  0  0  0  0  0  0  0  0  0
   -0.7278   -0.6857    0.0000 Cl  0  0  0  0  0  0  0  0  0  0  0  0
   -0.2322    0.9784    0.0000 C   0  0  0  0  0  0  0  0  0  0  0  0
    0.5003    1.6662    0.0000 C   0  0  0  0  0  0  0  0  0  0  0  0
    1.4584    1.3796    0.0000 C   0  0  0  0  0  0  0  0  0  0  0  0
  1  2  1  0
  2 20  1  0
  2  3  1  0
  3  4  2  0
  3  5  1  0
  5  6  1  0
  6  7  2  0
  7  8  1  0
  8 13  1  0
  8  9  2  0
  9 10  1  0
 10 11  2  0
 11 12  1  0
 12 13  2  0
  7 14  1  0
 14 20  2  0
 14 15  1  0
 15 16  2  0
 16 17  1  0
 16 18  1  0
 18 19  2  0
 19 20  1  0
M  END
>  <SMILES>  (534) 
CN1C(=O)CN=C(c2ccccc2)c2cc(Cl)ccc21

>  <CollectionName>  (534) 
chembl

>  <LOG PLASMA PROTEIN BINDING (RAT) (% unbound)>  (534) 
1.09272064468

>  <Internal ID>  (534) 


>  <Source>  (534) 
AstraZeneca

$$$$
CHEMBL88
     RDKit          2D

 14 14  0  0  1  0  0  0  0  0999 V2000
    1.1469    4.4190    0.0000 Cl  0  0  0  0  0  0  0  0  0  0  0  0
    1.7867    3.6504    0.0000 C   0  0  0  0  0  0  0  0  0  0  0  0
    1.4409    2.7121    0.0000 C   0  0  0  0  0  0  0  0  0  0  0  0
    2.0807    1.9435    0.0000 N   0  0  0  0  0  0  0  0  0  0  0  0
    3.0662    2.1133    0.0000 C   0  0  0  0  0  0  0  0  0  0  0  0
    3.7060    1.3447    0.0000 C   0  0  0  0  0  0  0  0  0  0  0  0
    4.6915    1.5145    0.0000 Cl  0  0  0  0  0  0  0  0  0  0  0  0
    1.7350    1.0052    0.0000 P   0  0  0  0  0  0  0  0  0  0  0  0
    2.7195    0.8296    0.0000 O   0  0  0  0  0  0  0  0  0  0  0  0
    1.7350   -0.0000    0.0000 N   0  0  0  0  0  0  0  0  0  0  0  0
    0.8675   -0.4975    0.0000 C   0  0  0  0  0  0  0  0  0  0  0  0
    0.0000    0.0000    0.0000 C   0  0  0  0  0  0  0  0  0  0  0  0
    0.0000    1.0052    0.0000 C   0  0  0  0  0  0  0  0  0  0  0  0
    0.8675    1.5129    0.0000 O   0  0  0  0  0  0  0  0  0  0  0  0
  1  2  1  0
  2  3  1  0
  3  4  1  0
  4  5  1  0
  5  6  1  0
  6  7  1  0
  4  8  1  0
  8 14  1  0
  8  9  2  0
  8 10  1  0
 10 11  1  0
 11 12  1  0
 12 13  1  0
 13 14  1  0
M  END
>  <SMILES>  (535) 
O=P1(N(CCCl)CCCl)NCCCO1

>  <CollectionName>  (535) 
chembl

>  <LOG PLASMA PROTEIN BINDING (RAT) (% unbound)>  (535) 
1.93333541008

>  <Internal ID>  (535) 


>  <Source>  (535) 
AstraZeneca

$$$$
CHEMBL402501
     RDKit          2D

 36 40  0  0  1  0  0  0  0  0999 V2000
    7.0904    6.1717    0.0000 C   0  0  0  0  0  0  0  0  0  0  0  0
    7.0703    5.1719    0.0000 C   0  0  0  0  0  0  0  0  0  0  0  0
    6.1944    4.6894    0.0000 C   0  0  0  0  0  0  0  0  0  0  0  0
    5.3386    5.2067    0.0000 C   0  0  0  0  0  0  0  0  0  0  0  0
    5.3618    6.2117    0.0000 C   0  0  0  0  0  0  0  0  0  0  0  0
    4.5060    6.7290    0.0000 C   0  0  0  0  0  0  0  0  0  0  0  0
    3.6273    6.2517    0.0000 C   0  0  0  0  0  0  0  0  0  0  0  0
    3.6041    5.2467    0.0000 C   0  0  0  0  0  0  0  0  0  0  0  0
    2.7253    4.7694    0.0000 C   0  0  0  0  0  0  0  0  0  0  0  0
    2.6993    3.7698    0.0000 C   0  0  0  0  0  0  0  0  0  0  0  0
    3.5521    3.2474    0.0000 O   0  0  0  0  0  0  0  0  0  0  0  0
    1.8206    3.2925    0.0000 N   0  0  0  0  0  0  0  0  0  0  0  0
    1.7946    2.2928    0.0000 C   0  0  0  0  0  0  0  0  0  0  0  0
    0.8413    1.9596    0.0000 C   0  0  0  0  0  0  0  0  0  0  0  0
    0.8471    0.9032    0.0000 C   0  0  0  0  0  0  0  0  0  0  0  0
    0.0000    0.0000    0.0000 C   0  0  0  0  0  0  0  0  0  0  0  0
    1.0628    0.2973    0.0000 C   0  0  0  0  0  0  0  0  0  0  0  0
    2.0572   -0.0972    0.0000 C   0  0  0  0  0  0  0  0  0  0  0  0
    2.7750    0.8067    0.0000 C   0  0  0  0  0  0  0  0  0  0  0  0
    1.7870    0.5617    0.0000 C   0  0  0  0  0  0  0  0  0  0  0  0
    2.7828    1.8886    0.0000 C   0  0  0  0  0  0  0  0  0  0  0  0
    1.0593    1.4236    0.0000 C   0  0  0  0  0  0  0  0  0  0  0  0
    4.4596    4.7192    0.0000 C   0  0  0  0  0  0  0  0  0  0  0  0
    7.9261    4.6546    0.0000 N   0  0  0  0  0  0  0  0  0  0  0  0
    8.8020    5.1371    0.0000 C   0  0  0  0  0  0  0  0  0  0  0  0
    9.6578    4.6198    0.0000 C   0  0  0  0  0  0  0  0  0  0  0  0
    9.6377    3.6200    0.0000 O   0  0  0  0  0  0  0  0  0  0  0  0
   10.5337    5.1023    0.0000 C   0  0  0  0  0  0  0  0  0  0  0  0
   11.3924    4.5797    0.0000 C   0  0  0  0  0  0  0  0  0  0  0  0
   12.2684    5.0622    0.0000 C   0  0  0  0  0  0  0  0  0  0  0  0
   12.2943    6.0619    0.0000 C   0  0  0  0  0  0  0  0  0  0  0  0
   13.1724    6.5405    0.0000 O   0  0  0  0  0  0  0  0  0  0  0  0
   11.4356    6.5844    0.0000 C   0  0  0  0  0  0  0  0  0  0  0  0
   11.4616    7.5841    0.0000 C   0  0  0  0  0  0  0  0  0  0  0  0
   10.6089    8.1064    0.0000 O   0  0  0  0  0  0  0  0  0  0  0  0
   10.5510    6.1073    0.0000 C   0  0  0  0  0  0  0  0  0  0  0  0
  2  1  1  1
  2  3  1  0
  3  4  1  0
  4 23  1  0
  4  5  2  0
  5  6  1  0
  6  7  2  0
  7  8  1  0
  8  9  1  0
  9 10  1  0
 10 11  2  0
 10 12  1  0
 12 13  1  0
 13 21  1  0
 13 22  1  0
 13 14  1  0
 14 15  1  0
 15 20  1  0
 15 16  1  0
 16 17  1  0
 17 18  1  0
 18 19  1  0
 19 20  1  0
 19 21  1  0
 17 22  1  0
  8 23  2  0
  2 24  1  0
 24 25  1  0
 25 26  1  0
 26 27  1  1
 26 28  1  0
 28 36  1  0
 28 29  2  0
 29 30  1  0
 30 31  2  0
 31 32  1  0
 31 33  1  0
 33 34  1  0
 34 35  1  0
 33 36  2  0
M  END
>  <SMILES>  (536) 
C[C@H](Cc1cccc(CC(=O)NC23CC4CC(CC(C4)C2)C3)c1)NC[C@H](O)c1ccc(O)c(CO)c1

>  <CollectionName>  (536) 
chembl

>  <LOG PLASMA PROTEIN BINDING (RAT) (% unbound)>  (536) 
1.12742877785

>  <Internal ID>  (536) 


>  <Source>  (536) 
AstraZeneca

$$$$
CHEMBL1631095
     RDKit          2D

 31 33  0  0  0  0  0  0  0  0999 V2000
   -2.0005    0.5910    0.0000 N   0  0  0  0  0  0  0  0  0  0  0  0
   -1.2577    1.2605    0.0000 C   0  0  0  0  0  0  0  0  0  0  0  0
   -1.4660    2.2386    0.0000 O   0  0  0  0  0  0  0  0  0  0  0  0
   -0.3065    0.9519    0.0000 C   0  0  0  0  0  0  0  0  0  0  0  0
    0.0000    0.0000    0.0000 C   0  0  0  0  0  0  0  0  0  0  0  0
    1.0015   -0.0000    0.0000 C   0  0  0  0  0  0  0  0  0  0  0  0
    1.5883   -0.8097    0.0000 C   0  0  0  0  0  0  0  0  0  0  0  0
    1.1805   -1.7228    0.0000 O   0  0  0  0  0  0  0  0  0  0  0  0
    2.5830   -0.7064    0.0000 N   0  0  0  0  0  0  0  0  0  0  0  0
    1.3133    0.9519    0.0000 N   0  0  0  0  0  0  0  0  0  0  0  0
    0.5008    1.5428    0.0000 N   0  0  0  0  0  0  0  0  0  0  0  0
    2.2648    1.2596    0.0000 C   0  0  0  0  0  0  0  0  0  0  0  0
    2.4723    2.2431    0.0000 C   0  0  0  0  0  0  0  0  0  0  0  0
    3.4238    2.5508    0.0000 C   0  0  0  0  0  0  0  0  0  0  0  0
    4.1699    1.8850    0.0000 C   0  0  0  0  0  0  0  0  0  0  0  0
    3.9624    0.9014    0.0000 C   0  0  0  0  0  0  0  0  0  0  0  0
    3.0088    0.5837    0.0000 C   0  0  0  0  0  0  0  0  0  0  0  0
    5.2682   -0.2637    0.0000 C   0  0  0  0  0  0  0  0  0  0  0  0
    5.0607   -1.2472    0.0000 C   0  0  0  0  0  0  0  0  0  0  0  0
    5.8165   -1.9098    0.0000 C   0  0  0  0  0  0  0  0  0  0  0  0
    6.7702   -1.5921    0.0000 C   0  0  0  0  0  0  0  0  0  0  0  0
    6.9680   -0.6118    0.0000 C   0  0  0  0  0  0  0  0  0  0  0  0
    6.2218    0.0540    0.0000 C   0  0  0  0  0  0  0  0  0  0  0  0
    6.4239    1.0334    0.0000 C   0  0  0  0  0  0  0  0  0  0  0  0
    5.4445    1.2354    0.0000 F   0  0  0  0  0  0  0  0  0  0  0  0
    7.4033    0.8313    0.0000 F   0  0  0  0  0  0  0  0  0  0  0  0
    6.6260    2.0127    0.0000 F   0  0  0  0  0  0  0  0  0  0  0  0
    5.6188   -2.8900    0.0000 C   0  0  0  0  0  0  0  0  0  0  0  0
    6.5990   -3.0878    0.0000 F   0  0  0  0  0  0  0  0  0  0  0  0
    4.6385   -2.6923    0.0000 F   0  0  0  0  0  0  0  0  0  0  0  0
    5.4210   -3.8703    0.0000 F   0  0  0  0  0  0  0  0  0  0  0  0
  1  2  1  0
  2  3  2  0
  2  4  1  0
  4 11  2  0
  4  5  1  0
  5  6  2  0
  6  7  1  0
  7  8  2  0
  7  9  1  0
  6 10  1  0
 10 11  1  0
 10 12  1  0
 12 17  1  0
 12 13  2  0
 13 14  1  0
 14 15  2  0
 15 16  1  0
 16 17  2  0
 16 18  1  0
 18 23  1  0
 18 19  2  0
 19 20  1  0
 20 21  2  0
 21 22  1  0
 22 23  2  0
 23 24  1  0
 24 25  1  0
 24 26  1  0
 24 27  1  0
 20 28  1  0
 28 29  1  0
 28 30  1  0
 28 31  1  0
M  END
>  <SMILES>  (537) 
NC(=O)c1cc(C(N)=O)n(-c2cccc(-c3cc(C(F)(F)F)ccc3C(F)(F)F)c2)n1

>  <CollectionName>  (537) 
chembl

>  <LOG PLASMA PROTEIN BINDING (RAT) (% unbound)>  (537) 
0.754348335711

>  <Internal ID>  (537) 


>  <Source>  (537) 
AstraZeneca

$$$$
CHEMBL2147316
     RDKit          2D

 34 36  0  0  0  0  0  0  0  0999 V2000
   -6.9237   -4.7691    0.0000 C   0  0  0  0  0  0  0  0  0  0  0  0
   -6.0569   -4.2703    0.0000 O   0  0  0  0  0  0  0  0  0  0  0  0
   -6.0555   -3.2703    0.0000 C   0  0  0  0  0  0  0  0  0  0  0  0
   -6.9267   -2.7691    0.0000 C   0  0  0  0  0  0  0  0  0  0  0  0
   -6.9253   -1.7690    0.0000 N   0  0  0  0  0  0  0  0  0  0  0  0
   -6.0615   -1.2652    0.0000 C   0  0  0  0  0  0  0  0  0  0  0  0
   -5.1902   -1.7665    0.0000 C   0  0  0  0  0  0  0  0  0  0  0  0
   -5.1828   -2.7716    0.0000 N   0  0  0  0  0  0  0  0  0  0  0  0
   -6.0667    0.4848    0.0000 C   0  0  0  0  0  0  0  0  0  0  0  0
   -6.9335    0.9835    0.0000 C   0  0  0  0  0  0  0  0  0  0  0  0
   -6.9408    1.9835    0.0000 C   0  0  0  0  0  0  0  0  0  0  0  0
   -6.0725    2.4899    0.0000 C   0  0  0  0  0  0  0  0  0  0  0  0
   -5.1968    1.9964    0.0000 C   0  0  0  0  0  0  0  0  0  0  0  0
   -5.1983    0.9912    0.0000 C   0  0  0  0  0  0  0  0  0  0  0  0
   -4.3316    0.4925    0.0000 C   0  0  0  0  0  0  0  0  0  0  0  0
   -4.8303   -0.3743    0.0000 F   0  0  0  0  0  0  0  0  0  0  0  0
   -3.8329    1.3592    0.0000 F   0  0  0  0  0  0  0  0  0  0  0  0
   -3.4648   -0.0063    0.0000 C   0  0  0  0  0  0  0  0  0  0  0  0
   -2.5995    0.4950    0.0000 N   0  0  0  0  0  0  0  0  0  0  0  0
   -1.7328   -0.0038    0.0000 C   0  0  0  0  0  0  0  0  0  0  0  0
   -1.7313   -1.0038    0.0000 O   0  0  0  0  0  0  0  0  0  0  0  0
   -0.8675    0.4975    0.0000 C   0  0  0  0  0  0  0  0  0  0  0  0
    0.0000    0.0000    0.0000 C   0  0  0  0  0  0  0  0  0  0  0  0
    0.8675    0.4975    0.0000 C   0  0  0  0  0  0  0  0  0  0  0  0
    0.8675    1.5027    0.0000 C   0  0  0  0  0  0  0  0  0  0  0  0
    1.7350    2.0001    0.0000 C   0  0  0  0  0  0  0  0  0  0  0  0
    1.7379    3.0001    0.0000 O   0  0  0  0  0  0  0  0  0  0  0  0
    2.6054    3.4976    0.0000 C   0  0  0  0  0  0  0  0  0  0  0  0
    2.6084    4.4976    0.0000 C   0  0  0  0  0  0  0  0  0  0  0  0
    1.6084    4.5005    0.0000 F   0  0  0  0  0  0  0  0  0  0  0  0
    3.6084    4.4946    0.0000 F   0  0  0  0  0  0  0  0  0  0  0  0
    2.6113    5.4976    0.0000 F   0  0  0  0  0  0  0  0  0  0  0  0
    0.0000    2.0104    0.0000 N   0  0  0  0  0  0  0  0  0  0  0  0
   -0.8675    1.5027    0.0000 C   0  0  0  0  0  0  0  0  0  0  0  0
  1  2  1  0
  2  3  1  0
  3  8  2  0
  3  4  1  0
  4  5  2  0
  5  6  1  0
  6  7  2  0
  7  8  1  0
  6  9  1  0
  9 14  1  0
  9 10  2  0
 10 11  1  0
 11 12  2  0
 12 13  1  0
 13 14  2  0
 14 15  1  0
 15 16  1  0
 15 17  1  0
 15 18  1  0
 18 19  1  0
 19 20  1  0
 20 21  2  0
 20 22  1  0
 22 34  1  0
 22 23  2  0
 23 24  1  0
 24 25  2  0
 25 26  1  0
 26 27  1  0
 27 28  1  0
 28 29  1  0
 29 30  1  0
 29 31  1  0
 29 32  1  0
 25 33  1  0
 33 34  2  0
M  END
>  <SMILES>  (538) 
COc1cnc(-c2ccccc2C(F)(F)CNC(=O)c2ccc(COCC(F)(F)F)nc2)cn1

>  <CollectionName>  (538) 
chembl

>  <LOG PLASMA PROTEIN BINDING (RAT) (% unbound)>  (538) 
0.725911632295

>  <Internal ID>  (538) 


>  <Source>  (538) 
AstraZeneca

$$$$
CHEMBL2151322
     RDKit          2D

 29 32  0  0  1  0  0  0  0  0999 V2000
    3.7839    5.5416    0.0000 C   0  0  0  0  0  0  0  0  0  0  0  0
    4.6941    5.1274    0.0000 C   0  0  0  0  0  0  0  0  0  0  0  0
    5.5079    5.7084    0.0000 C   0  0  0  0  0  0  0  0  0  0  0  0
    4.7904    4.1320    0.0000 O   0  0  0  0  0  0  0  0  0  0  0  0
    3.9765    3.5509    0.0000 C   0  0  0  0  0  0  0  0  0  0  0  0
    3.9695    2.5495    0.0000 C   0  0  0  0  0  0  0  0  0  0  0  0
    3.0154    2.2497    0.0000 C   0  0  0  0  0  0  0  0  0  0  0  0
    2.4302    3.0611    0.0000 N   0  0  0  0  0  0  0  0  0  0  0  0
    3.0269    3.8694    0.0000 N   0  0  0  0  0  0  0  0  0  0  0  0
    2.7001    1.3007    0.0000 N   0  0  0  0  0  0  0  0  0  0  0  0
    3.2854    0.4841    0.0000 C   0  0  0  0  0  0  0  0  0  0  0  0
    2.6894   -0.3248    0.0000 N   0  0  0  0  0  0  0  0  0  0  0  0
    1.7361   -0.0079    0.0000 C   0  0  0  0  0  0  0  0  0  0  0  0
    0.8635   -0.5043    0.0000 C   0  0  0  0  0  0  0  0  0  0  0  0
    0.0000    0.0000    0.0000 C   0  0  0  0  0  0  0  0  0  0  0  0
    0.0051    1.0055    0.0000 C   0  0  0  0  0  0  0  0  0  0  0  0
   -0.8596    1.5078    0.0000 N   0  0  0  0  0  0  0  0  0  0  0  0
   -1.7269    1.0101    0.0000 C   0  0  0  0  0  0  0  0  0  0  0  0
   -1.7296    0.0101    0.0000 C   0  0  0  0  0  0  0  0  0  0  0  0
   -0.8649   -0.4922    0.0000 O   0  0  0  0  0  0  0  0  0  0  0  0
   -2.5916    1.5123    0.0000 C   0  0  0  0  0  0  0  0  0  0  0  0
   -3.4620    1.0095    0.0000 C   0  0  0  0  0  0  0  0  0  0  0  0
   -4.3268    1.5117    0.0000 C   0  0  0  0  0  0  0  0  0  0  0  0
   -4.3300    2.5118    0.0000 C   0  0  0  0  0  0  0  0  0  0  0  0
   -5.1969    3.0102    0.0000 F   0  0  0  0  0  0  0  0  0  0  0  0
   -3.4596    3.0146    0.0000 C   0  0  0  0  0  0  0  0  0  0  0  0
   -2.5860    2.5175    0.0000 N   0  0  0  0  0  0  0  0  0  0  0  0
    0.8736    1.5067    0.0000 N   0  0  0  0  0  0  0  0  0  0  0  0
    1.7426    0.9968    0.0000 C   0  0  0  0  0  0  0  0  0  0  0  0
  1  2  1  0
  2  3  1  0
  2  4  1  0
  4  5  1  0
  5  9  1  0
  5  6  2  0
  6  7  1  0
  7  8  2  0
  8  9  1  0
  7 10  1  0
 10 29  1  0
 10 11  1  0
 11 12  2  0
 12 13  1  0
 13 29  2  0
 13 14  1  0
 14 15  2  0
 15 16  1  0
 16 17  1  0
 17 18  1  0
 18 19  1  1
 19 20  1  0
 18 21  1  0
 21 27  1  0
 21 22  2  0
 22 23  1  0
 23 24  2  0
 24 25  1  0
 24 26  1  0
 26 27  2  0
 16 28  2  0
 28 29  1  0
M  END
>  <SMILES>  (539) 
CC(C)Oc1cc(-n2cnc3ccc(N[C@@H](CO)c4ccc(F)cn4)nc32)n[nH]1

>  <CollectionName>  (539) 
chembl

>  <LOG PLASMA PROTEIN BINDING (RAT) (% unbound)>  (539) 
1.27044590802

>  <Internal ID>  (539) 


>  <Source>  (539) 
AstraZeneca

$$$$
CHEMBL2152903
     RDKit          2D

 36 40  0  0  1  0  0  0  0  0999 V2000
    2.3452   -5.3682    0.0000 C   0  0  0  0  0  0  0  0  0  0  0  0
    2.7533   -4.4553    0.0000 C   0  0  0  0  0  0  0  0  0  0  0  0
    2.1667   -3.6454    0.0000 N   0  0  0  0  0  0  0  0  0  0  0  0
    2.5715   -2.7254    0.0000 C   0  0  0  0  0  0  0  0  0  0  0  0
    1.9819   -1.9113    0.0000 C   0  0  0  0  0  0  0  0  0  0  0  0
    0.9875   -2.0172    0.0000 C   0  0  0  0  0  0  0  0  0  0  0  0
    0.5767   -2.9289    0.0000 C   0  0  0  0  0  0  0  0  0  0  0  0
   -0.4181   -3.0305    0.0000 C   0  0  0  0  0  0  0  0  0  0  0  0
    1.1663   -3.7431    0.0000 C   0  0  0  0  0  0  0  0  0  0  0  0
    0.7555   -4.6548    0.0000 O   0  0  0  0  0  0  0  0  0  0  0  0
    2.6938   -0.3126    0.0000 C   0  0  0  0  0  0  0  0  0  0  0  0
    3.2858    0.5022    0.0000 N   0  0  0  0  0  0  0  0  0  0  0  0
    2.6938    1.3168    0.0000 C   0  0  0  0  0  0  0  0  0  0  0  0
    3.0028    2.2678    0.0000 N   0  0  0  0  0  0  0  0  0  0  0  0
    1.7360    1.0058    0.0000 C   0  0  0  0  0  0  0  0  0  0  0  0
    0.8680    1.5137    0.0000 C   0  0  0  0  0  0  0  0  0  0  0  0
    0.8680    2.5137    0.0000 F   0  0  0  0  0  0  0  0  0  0  0  0
    0.0000    1.0058    0.0000 C   0  0  0  0  0  0  0  0  0  0  0  0
    0.0000    0.0000    0.0000 C   0  0  0  0  0  0  0  0  0  0  0  0
    0.8680   -0.4979    0.0000 C   0  0  0  0  0  0  0  0  0  0  0  0
    1.7360   -0.0013    0.0000 C   0  0  0  0  0  0  0  0  0  0  0  0
    3.5598   -0.8126    0.0000 C   0  0  0  0  0  0  0  0  0  0  0  0
    3.5568   -1.8178    0.0000 C   0  0  0  0  0  0  0  0  0  0  0  0
    4.4228   -2.3179    0.0000 C   0  0  0  0  0  0  0  0  0  0  0  0
    5.2918   -1.8230    0.0000 C   0  0  0  0  0  0  0  0  0  0  0  0
    5.2948   -0.8178    0.0000 C   0  0  0  0  0  0  0  0  0  0  0  0
    4.4288   -0.3075    0.0000 C   0  0  0  0  0  0  0  0  0  0  0  0
    6.1638   -0.3230    0.0000 C   0  0  0  0  0  0  0  0  0  0  0  0
    6.1712    0.6822    0.0000 C   0  0  0  0  0  0  0  0  0  0  0  0
    7.0424    1.1835    0.0000 N   0  0  0  0  0  0  0  0  0  0  0  0
    7.9062    0.6694    0.0000 C   0  0  0  0  0  0  0  0  0  0  0  0
    7.8987   -0.3358    0.0000 C   0  0  0  0  0  0  0  0  0  0  0  0
    7.0276   -0.8269    0.0000 C   0  0  0  0  0  0  0  0  0  0  0  0
    8.7603   -0.8434    0.0000 C   0  0  0  0  0  0  0  0  0  0  0  0
    9.6219   -1.3511    0.0000 C   0  0  0  0  0  0  0  0  0  0  0  0
   10.4834   -1.8587    0.0000 C   0  0  0  0  0  0  0  0  0  0  0  0
  1  2  1  0
  2  3  1  0
  3  9  1  0
  3  4  1  0
  4  5  2  0
  5  6  1  0
  6  7  2  0
  7  8  1  0
  7  9  1  0
  9 10  2  0
 11  5  1  1
 11 21  1  0
 11 12  1  0
 12 13  2  0
 13 14  1  0
 13 15  1  0
 15 21  2  0
 15 16  1  0
 16 17  1  0
 16 18  2  0
 18 19  1  0
 19 20  2  0
 20 21  1  0
 11 22  1  0
 22 27  1  0
 22 23  2  0
 23 24  1  0
 24 25  2  0
 25 26  1  0
 26 27  2  0
 26 28  1  0
 28 33  1  0
 28 29  2  0
 29 30  1  0
 30 31  2  0
 31 32  1  0
 32 33  2  0
 32 34  1  0
 34 35  3  0
 35 36  1  0
M  END
>  <SMILES>  (540) 
CC#Cc1cncc(-c2cccc([C@@]3(c4cc(C)c(=O)n(CC)c4)N=C(N)c4c(F)cccc43)c2)c1

>  <CollectionName>  (540) 
chembl

>  <LOG PLASMA PROTEIN BINDING (RAT) (% unbound)>  (540) 
0.13353890837

>  <Internal ID>  (540) 


>  <Source>  (540) 
AstraZeneca

$$$$
CHEMBL2158769
     RDKit          2D

 35 38  0  0  1  0  0  0  0  0999 V2000
    0.8660    4.5104    0.0000 O   0  0  0  0  0  0  0  0  0  0  0  0
    0.8660    3.5104    0.0000 C   0  0  0  0  0  0  0  0  0  0  0  0
    1.7321    3.0104    0.0000 O   0  0  0  0  0  0  0  0  0  0  0  0
   -0.0000    3.0104    0.0000 C   0  0  0  0  0  0  0  0  0  0  0  0
   -0.8660    3.5104    0.0000 C   0  0  0  0  0  0  0  0  0  0  0  0
   -0.8660    4.5104    0.0000 C   0  0  0  0  0  0  0  0  0  0  0  0
   -0.0007    5.0117    0.0000 C   0  0  0  0  0  0  0  0  0  0  0  0
    0.0037    6.0117    0.0000 C   0  0  0  0  0  0  0  0  0  0  0  0
   -0.8661    6.5156    0.0000 C   0  0  0  0  0  0  0  0  0  0  0  0
   -1.7403    6.0194    0.0000 C   0  0  0  0  0  0  0  0  0  0  0  0
   -1.7358    5.0143    0.0000 C   0  0  0  0  0  0  0  0  0  0  0  0
   -2.6011    4.5130    0.0000 C   0  0  0  0  0  0  0  0  0  0  0  0
   -3.4664    4.0117    0.0000 N   0  0  0  0  0  0  0  0  0  0  0  0
   -0.0000    2.0104    0.0000 N   0  0  0  0  0  0  0  0  0  0  0  0
   -0.8675    1.5027    0.0000 C   0  0  0  0  0  0  0  0  0  0  0  0
   -0.8675    0.4975    0.0000 C   0  0  0  0  0  0  0  0  0  0  0  0
    0.0000    0.0000    0.0000 C   0  0  0  0  0  0  0  0  0  0  0  0
    0.0000   -1.0000    0.0000 C   0  0  0  0  0  0  0  0  0  0  0  0
    0.8660   -1.5000    0.0000 N   0  0  0  0  0  0  0  0  0  0  0  0
    0.8720   -2.5051    0.0000 C   0  0  0  0  0  0  0  0  0  0  0  0
    1.7425   -3.0077    0.0000 C   0  0  0  0  0  0  0  0  0  0  0  0
    2.6071   -2.5052    0.0000 C   0  0  0  0  0  0  0  0  0  0  0  0
    2.6100   -1.5052    0.0000 C   0  0  0  0  0  0  0  0  0  0  0  0
    1.7395   -1.0026    0.0000 C   0  0  0  0  0  0  0  0  0  0  0  0
    3.4731   -3.0052    0.0000 O   0  0  0  0  0  0  0  0  0  0  0  0
    3.4731   -4.0052    0.0000 C   0  0  0  0  0  0  0  0  0  0  0  0
    2.6011   -4.5052    0.0000 C   0  0  0  0  0  0  0  0  0  0  0  0
    2.6011   -5.5053    0.0000 C   0  0  0  0  0  0  0  0  0  0  0  0
    3.4642   -6.0103    0.0000 C   0  0  0  0  0  0  0  0  0  0  0  0
    3.4598   -7.0103    0.0000 Cl  0  0  0  0  0  0  0  0  0  0  0  0
    4.3362   -5.5103    0.0000 C   0  0  0  0  0  0  0  0  0  0  0  0
    5.1992   -6.0154    0.0000 Cl  0  0  0  0  0  0  0  0  0  0  0  0
    4.3451   -4.5052    0.0000 C   0  0  0  0  0  0  0  0  0  0  0  0
    0.8675    0.4975    0.0000 C   0  0  0  0  0  0  0  0  0  0  0  0
    0.8675    1.5027    0.0000 C   0  0  0  0  0  0  0  0  0  0  0  0
  1  2  1  0
  2  3  2  0
  4  2  1  0
  4  5  1  1
  5  6  1  0
  6 11  1  0
  6  7  2  0
  7  8  1  0
  8  9  2  0
  9 10  1  0
 10 11  2  0
 11 12  1  0
 12 13  3  0
  4 14  1  0
 14 35  1  0
 14 15  1  0
 15 16  1  0
 16 17  1  0
 17 18  1  0
 18 19  1  0
 19 24  1  0
 19 20  1  0
 20 21  1  0
 21 22  1  0
 22 23  1  0
 23 24  1  0
 22 25  1  0
 25 26  1  0
 26 33  1  0
 26 27  2  0
 27 28  1  0
 28 29  2  0
 29 30  1  0
 29 31  1  0
 31 32  1  0
 31 33  2  0
 17 34  1  0
 34 35  1  0
M  END
>  <SMILES>  (541) 
N#Cc1ccccc1C[C@@H](C(=O)O)N1CCC(CN2CCC(Oc3ccc(Cl)c(Cl)c3)CC2)CC1

>  <CollectionName>  (541) 
chembl

>  <LOG PLASMA PROTEIN BINDING (RAT) (% unbound)>  (541) 
1.34986008219

>  <Internal ID>  (541) 


>  <Source>  (541) 
AstraZeneca

$$$$
CHEMBL2164042
     RDKit          2D

 34 37  0  0  1  0  0  0  0  0999 V2000
    8.7910   -1.3560    0.0000 F   0  0  0  0  0  0  0  0  0  0  0  0
    7.7910   -1.3604    0.0000 C   0  0  0  0  0  0  0  0  0  0  0  0
    7.2910   -2.2325    0.0000 C   0  0  0  0  0  0  0  0  0  0  0  0
    6.2859   -2.2414    0.0000 N   0  0  0  0  0  0  0  0  0  0  0  0
    5.7859   -1.3695    0.0000 C   0  0  0  0  0  0  0  0  0  0  0  0
    4.7859   -1.3695    0.0000 C   0  0  0  0  0  0  0  0  0  0  0  0
    4.2858   -0.5035    0.0000 C   0  0  0  0  0  0  0  0  0  0  0  0
    3.2858   -0.5036    0.0000 N   0  0  0  0  0  0  0  0  0  0  0  0
    2.6938    0.3110    0.0000 C   0  0  0  0  0  0  0  0  0  0  0  0
    3.0029    1.2620    0.0000 C   0  0  0  0  0  0  0  0  0  0  0  0
    2.3337    2.0052    0.0000 O   0  0  0  0  0  0  0  0  0  0  0  0
    3.9810    1.4699    0.0000 N   0  0  0  0  0  0  0  0  0  0  0  0
    4.2901    2.4210    0.0000 C   0  0  0  0  0  0  0  0  0  0  0  0
    5.2682    2.6288    0.0000 C   0  0  0  0  0  0  0  0  0  0  0  0
    5.9386    1.8798    0.0000 C   0  0  0  0  0  0  0  0  0  0  0  0
    6.9168    2.0877    0.0000 C   0  0  0  0  0  0  0  0  0  0  0  0
    7.2314    3.0369    0.0000 C   0  0  0  0  0  0  0  0  0  0  0  0
    6.5610    3.7859    0.0000 C   0  0  0  0  0  0  0  0  0  0  0  0
    6.8757    4.7351    0.0000 O   0  0  0  0  0  0  0  0  0  0  0  0
    6.2110    5.4822    0.0000 C   0  0  0  0  0  0  0  0  0  0  0  0
    5.4639    4.8175    0.0000 F   0  0  0  0  0  0  0  0  0  0  0  0
    6.9581    6.1470    0.0000 F   0  0  0  0  0  0  0  0  0  0  0  0
    5.5463    6.2293    0.0000 F   0  0  0  0  0  0  0  0  0  0  0  0
    5.5760    3.5857    0.0000 C   0  0  0  0  0  0  0  0  0  0  0  0
    1.7360   -0.0000    0.0000 C   0  0  0  0  0  0  0  0  0  0  0  0
    0.8680    0.5079    0.0000 C   0  0  0  0  0  0  0  0  0  0  0  0
    0.0000    0.0000    0.0000 C   0  0  0  0  0  0  0  0  0  0  0  0
    0.0000   -1.0058    0.0000 C   0  0  0  0  0  0  0  0  0  0  0  0
    0.8680   -1.5037    0.0000 C   0  0  0  0  0  0  0  0  0  0  0  0
    1.7360   -1.0071    0.0000 C   0  0  0  0  0  0  0  0  0  0  0  0
    2.6938   -1.3184    0.0000 C   0  0  0  0  0  0  0  0  0  0  0  0
    3.0028   -2.2695    0.0000 O   0  0  0  0  0  0  0  0  0  0  0  0
    6.2858   -0.4974    0.0000 N   0  0  0  0  0  0  0  0  0  0  0  0
    7.2859   -0.4973    0.0000 C   0  0  0  0  0  0  0  0  0  0  0  0
  1  2  1  0
  2 34  2  0
  2  3  1  0
  3  4  2  0
  4  5  1  0
  5  6  1  0
  6  7  1  0
  7  8  1  0
  8 31  1  0
  8  9  1  0
  9 10  1  0
 10 11  2  0
 10 12  1  0
 12 13  1  0
 13 14  1  0
 14 24  1  0
 14 15  2  0
 15 16  1  0
 16 17  2  0
 17 18  1  0
 18 19  1  0
 19 20  1  0
 20 21  1  0
 20 22  1  0
 20 23  1  0
 18 24  2  0
  9 25  1  0
 25 30  1  0
 25 26  2  0
 26 27  1  0
 27 28  2  0
 28 29  1  0
 29 30  2  0
 30 31  1  0
 31 32  2  0
  5 33  2  0
 33 34  1  0
M  END
>  <SMILES>  (542) 
O=C(NCc1cccc(OC(F)(F)F)c1)C1c2ccccc2C(=O)N1CCc1ncc(F)cn1

>  <CollectionName>  (542) 
chembl

>  <LOG PLASMA PROTEIN BINDING (RAT) (% unbound)>  (542) 
1.25406445291

>  <Internal ID>  (542) 


>  <Source>  (542) 
AstraZeneca

$$$$
CHEMBL2164373
     RDKit          2D

 33 36  0  0  1  0  0  0  0  0999 V2000
    7.5722    4.5123    0.0000 F   0  0  0  0  0  0  0  0  0  0  0  0
    8.5218    4.1990    0.0000 C   0  0  0  0  0  0  0  0  0  0  0  0
    9.4715    3.8858    0.0000 F   0  0  0  0  0  0  0  0  0  0  0  0
    8.8351    5.1487    0.0000 F   0  0  0  0  0  0  0  0  0  0  0  0
    8.2086    3.2494    0.0000 O   0  0  0  0  0  0  0  0  0  0  0  0
    7.2295    3.0458    0.0000 C   0  0  0  0  0  0  0  0  0  0  0  0
    6.9175    2.0903    0.0000 C   0  0  0  0  0  0  0  0  0  0  0  0
    5.9384    1.8866    0.0000 C   0  0  0  0  0  0  0  0  0  0  0  0
    5.2682    2.6288    0.0000 C   0  0  0  0  0  0  0  0  0  0  0  0
    4.2901    2.4210    0.0000 C   0  0  0  0  0  0  0  0  0  0  0  0
    3.9810    1.4699    0.0000 N   0  0  0  0  0  0  0  0  0  0  0  0
    3.0029    1.2620    0.0000 C   0  0  0  0  0  0  0  0  0  0  0  0
    2.3337    2.0052    0.0000 O   0  0  0  0  0  0  0  0  0  0  0  0
    2.6938    0.3110    0.0000 C   0  0  0  0  0  0  0  0  0  0  0  0
    3.2858   -0.5036    0.0000 N   0  0  0  0  0  0  0  0  0  0  0  0
    4.2858   -0.5035    0.0000 C   0  0  0  0  0  0  0  0  0  0  0  0
    4.7871   -1.3688    0.0000 C   0  0  0  0  0  0  0  0  0  0  0  0
    5.7871   -1.3731    0.0000 C   0  0  0  0  0  0  0  0  0  0  0  0
    6.2910   -0.5033    0.0000 C   0  0  0  0  0  0  0  0  0  0  0  0
    7.0604    0.1354    0.0000 F   0  0  0  0  0  0  0  0  0  0  0  0
    7.0548   -1.1487    0.0000 F   0  0  0  0  0  0  0  0  0  0  0  0
    5.7947    0.3708    0.0000 C   0  0  0  0  0  0  0  0  0  0  0  0
    4.7896    0.3663    0.0000 C   0  0  0  0  0  0  0  0  0  0  0  0
    2.6938   -1.3184    0.0000 C   0  0  0  0  0  0  0  0  0  0  0  0
    3.0028   -2.2695    0.0000 O   0  0  0  0  0  0  0  0  0  0  0  0
    1.7360   -1.0071    0.0000 C   0  0  0  0  0  0  0  0  0  0  0  0
    0.8680   -1.5037    0.0000 C   0  0  0  0  0  0  0  0  0  0  0  0
    0.0000   -1.0058    0.0000 C   0  0  0  0  0  0  0  0  0  0  0  0
    0.0000    0.0000    0.0000 C   0  0  0  0  0  0  0  0  0  0  0  0
    0.8680    0.5079    0.0000 C   0  0  0  0  0  0  0  0  0  0  0  0
    1.7360   -0.0000    0.0000 C   0  0  0  0  0  0  0  0  0  0  0  0
    5.5803    3.5844    0.0000 C   0  0  0  0  0  0  0  0  0  0  0  0
    6.5625    3.7977    0.0000 C   0  0  0  0  0  0  0  0  0  0  0  0
  1  2  1  0
  2  3  1  0
  2  4  1  0
  2  5  1  0
  5  6  1  0
  6 33  2  0
  6  7  1  0
  7  8  2  0
  8  9  1  0
  9 10  1  0
 10 11  1  0
 11 12  1  0
 12 13  2  0
 12 14  1  0
 14 31  1  0
 14 15  1  0
 15 16  1  0
 16 23  1  0
 16 17  1  0
 17 18  1  0
 18 19  1  0
 19 20  1  0
 19 21  1  0
 19 22  1  0
 22 23  1  0
 15 24  1  0
 24 25  2  0
 24 26  1  0
 26 31  2  0
 26 27  1  0
 27 28  2  0
 28 29  1  0
 29 30  2  0
 30 31  1  0
  9 32  2  0
 32 33  1  0
M  END
>  <SMILES>  (543) 
O=C(NCc1ccc(OC(F)(F)F)cc1)C1c2ccccc2C(=O)N1C1CCC(F)(F)CC1

>  <CollectionName>  (543) 
chembl

>  <LOG PLASMA PROTEIN BINDING (RAT) (% unbound)>  (543) 
0.535294120043

>  <Internal ID>  (543) 


>  <Source>  (543) 
AstraZeneca

$$$$
CHEMBL2164395
     RDKit          2D

 34 37  0  0  1  0  0  0  0  0999 V2000
    9.2973    5.3817    0.0000 F   0  0  0  0  0  0  0  0  0  0  0  0
    9.5009    4.4026    0.0000 C   0  0  0  0  0  0  0  0  0  0  0  0
    9.7045    3.4235    0.0000 F   0  0  0  0  0  0  0  0  0  0  0  0
   10.4800    4.6062    0.0000 F   0  0  0  0  0  0  0  0  0  0  0  0
    8.5218    4.1990    0.0000 C   0  0  0  0  0  0  0  0  0  0  0  0
    8.2086    3.2494    0.0000 O   0  0  0  0  0  0  0  0  0  0  0  0
    7.2295    3.0458    0.0000 C   0  0  0  0  0  0  0  0  0  0  0  0
    6.9175    2.0903    0.0000 C   0  0  0  0  0  0  0  0  0  0  0  0
    5.9384    1.8866    0.0000 C   0  0  0  0  0  0  0  0  0  0  0  0
    5.2682    2.6288    0.0000 C   0  0  0  0  0  0  0  0  0  0  0  0
    4.2901    2.4210    0.0000 C   0  0  0  0  0  0  0  0  0  0  0  0
    3.9810    1.4699    0.0000 N   0  0  0  0  0  0  0  0  0  0  0  0
    3.0029    1.2620    0.0000 C   0  0  0  0  0  0  0  0  0  0  0  0
    2.3337    2.0052    0.0000 O   0  0  0  0  0  0  0  0  0  0  0  0
    2.6938    0.3110    0.0000 C   0  0  0  0  0  0  0  0  0  0  0  0
    3.2858   -0.5036    0.0000 N   0  0  0  0  0  0  0  0  0  0  0  0
    4.2858   -0.5035    0.0000 C   0  0  0  0  0  0  0  0  0  0  0  0
    4.7859   -1.3695    0.0000 C   0  0  0  0  0  0  0  0  0  0  0  0
    5.7859   -1.3695    0.0000 C   0  0  0  0  0  0  0  0  0  0  0  0
    6.2858   -0.4974    0.0000 C   0  0  0  0  0  0  0  0  0  0  0  0
    7.2859   -0.4973    0.0000 C   0  0  0  0  0  0  0  0  0  0  0  0
    7.7910   -1.3604    0.0000 C   0  0  0  0  0  0  0  0  0  0  0  0
    7.2910   -2.2325    0.0000 C   0  0  0  0  0  0  0  0  0  0  0  0
    6.2859   -2.2414    0.0000 N   0  0  0  0  0  0  0  0  0  0  0  0
    2.6938   -1.3184    0.0000 C   0  0  0  0  0  0  0  0  0  0  0  0
    3.0028   -2.2695    0.0000 O   0  0  0  0  0  0  0  0  0  0  0  0
    1.7360   -1.0071    0.0000 C   0  0  0  0  0  0  0  0  0  0  0  0
    0.8680   -1.5037    0.0000 C   0  0  0  0  0  0  0  0  0  0  0  0
    0.0000   -1.0058    0.0000 C   0  0  0  0  0  0  0  0  0  0  0  0
    0.0000    0.0000    0.0000 C   0  0  0  0  0  0  0  0  0  0  0  0
    0.8680    0.5079    0.0000 C   0  0  0  0  0  0  0  0  0  0  0  0
    1.7360   -0.0000    0.0000 C   0  0  0  0  0  0  0  0  0  0  0  0
    5.5803    3.5844    0.0000 C   0  0  0  0  0  0  0  0  0  0  0  0
    6.5625    3.7977    0.0000 N   0  0  0  0  0  0  0  0  0  0  0  0
  1  2  1  0
  2  3  1  0
  2  4  1  0
  2  5  1  0
  5  6  1  0
  6  7  1  0
  7 34  2  0
  7  8  1  0
  8  9  2  0
  9 10  1  0
 10 11  1  0
 11 12  1  0
 12 13  1  0
 13 14  2  0
 13 15  1  0
 15 32  1  0
 15 16  1  0
 16 17  1  0
 17 18  1  0
 18 19  1  0
 19 24  1  0
 19 20  2  0
 20 21  1  0
 21 22  2  0
 22 23  1  0
 23 24  2  0
 16 25  1  0
 25 26  2  0
 25 27  1  0
 27 32  2  0
 27 28  1  0
 28 29  2  0
 29 30  1  0
 30 31  2  0
 31 32  1  0
 10 33  2  0
 33 34  1  0
M  END
>  <SMILES>  (544) 
O=C(NCc1ccc(OCC(F)(F)F)nc1)C1c2ccccc2C(=O)N1CCc1ccccn1

>  <CollectionName>  (544) 
chembl

>  <LOG PLASMA PROTEIN BINDING (RAT) (% unbound)>  (544) 
1.56890541498

>  <Internal ID>  (544) 


>  <Source>  (544) 
AstraZeneca

$$$$
CHEMBL2164741
     RDKit          2D

 34 38  0  0  1  0  0  0  0  0999 V2000
    1.7589    6.0292    0.0000 O   0  0  0  0  0  0  0  0  0  0  0  0
    2.6227    5.5254    0.0000 C   0  0  0  0  0  0  0  0  0  0  0  0
    2.6198    4.5202    0.0000 C   0  0  0  0  0  0  0  0  0  0  0  0
    3.4858    4.0100    0.0000 N   0  0  0  0  0  0  0  0  0  0  0  0
    3.4829    3.0100    0.0000 C   0  0  0  0  0  0  0  0  0  0  0  0
    2.6154    2.5125    0.0000 C   0  0  0  0  0  0  0  0  0  0  0  0
    2.6125    1.5125    0.0000 N   0  0  0  0  0  0  0  0  0  0  0  0
    3.4848    1.0014    0.0000 C   0  0  0  0  0  0  0  0  0  0  0  0
    4.3535    1.4968    0.0000 O   0  0  0  0  0  0  0  0  0  0  0  0
    3.4805   -0.0073    0.0000 C   0  0  0  0  0  0  0  0  0  0  0  0
    2.6039   -0.5053    0.0000 C   0  0  0  0  0  0  0  0  0  0  0  0
    1.7371   -0.0000    0.0000 C   0  0  0  0  0  0  0  0  0  0  0  0
    0.8707   -0.4993    0.0000 C   0  0  0  0  0  0  0  0  0  0  0  0
    0.0000    0.0000    0.0000 C   0  0  0  0  0  0  0  0  0  0  0  0
    0.0000    1.0089    0.0000 C   0  0  0  0  0  0  0  0  0  0  0  0
    0.8707    1.5185    0.0000 C   0  0  0  0  0  0  0  0  0  0  0  0
    1.7414    1.0089    0.0000 C   0  0  0  0  0  0  0  0  0  0  0  0
   -0.8675    1.5063    0.0000 C   0  0  0  0  0  0  0  0  0  0  0  0
   -1.7350    2.0038    0.0000 N   0  0  0  0  0  0  0  0  0  0  0  0
    4.3548    4.5151    0.0000 C   0  0  0  0  0  0  0  0  0  0  0  0
    4.3577    5.5203    0.0000 C   0  0  0  0  0  0  0  0  0  0  0  0
    3.4917    6.0204    0.0000 C   0  0  0  0  0  0  0  0  0  0  0  0
    3.4946    7.0204    0.0000 N   0  0  0  0  0  0  0  0  0  0  0  0
    2.6300    7.5229    0.0000 C   0  0  0  0  0  0  0  0  0  0  0  0
    2.6329    8.5229    0.0000 C   0  0  0  0  0  0  0  0  0  0  0  0
    1.7621    9.0257    0.0000 C   0  0  0  0  0  0  0  0  0  0  0  0
    1.7738   10.0311    0.0000 C   0  0  0  0  0  0  0  0  0  0  0  0
    0.9052   10.5323    0.0000 O   0  0  0  0  0  0  0  0  0  0  0  0
    0.9118   11.5400    0.0000 C   0  0  0  0  0  0  0  0  0  0  0  0
    1.7850   12.0389    0.0000 C   0  0  0  0  0  0  0  0  0  0  0  0
    2.6515   11.5301    0.0000 O   0  0  0  0  0  0  0  0  0  0  0  0
    2.6470   10.5300    0.0000 C   0  0  0  0  0  0  0  0  0  0  0  0
    3.5098   10.0212    0.0000 C   0  0  0  0  0  0  0  0  0  0  0  0
    3.5068    9.0207    0.0000 N   0  0  0  0  0  0  0  0  0  0  0  0
  2  1  1  6
  2 22  1  0
  2  3  1  0
  3  4  1  0
  4  5  1  0
  5  6  1  0
  6  7  1  0
  7 17  1  0
  7  8  1  0
  8  9  2  0
  8 10  1  0
 10 11  2  0
 11 12  1  0
 12 17  2  0
 12 13  1  0
 13 14  2  0
 14 15  1  0
 15 16  2  0
 16 17  1  0
 15 18  1  0
 18 19  3  0
  4 20  1  0
 20 21  1  0
 21 22  1  0
 22 23  1  6
 23 24  1  0
 24 25  1  0
 25 34  1  0
 25 26  2  0
 26 27  1  0
 27 32  2  0
 27 28  1  0
 28 29  1  0
 29 30  1  0
 30 31  1  0
 31 32  1  0
 32 33  1  0
 33 34  2  0
M  END
>  <SMILES>  (545) 
N#Cc1ccc2ccc(=O)n(CCN3CC[C@@H](NCc4cc5c(cn4)OCCO5)[C@@H](O)C3)c2c1

>  <CollectionName>  (545) 
chembl

>  <LOG PLASMA PROTEIN BINDING (RAT) (% unbound)>  (545) 
1.67320528178

>  <Internal ID>  (545) 


>  <Source>  (545) 
AstraZeneca

$$$$
CHEMBL2178384
     RDKit          2D

 26 28  0  0  1  0  0  0  0  0999 V2000
    2.6003   -0.5013    0.0000 C   0  0  0  0  0  0  0  0  0  0  0  0
    1.7350    0.0000    0.0000 C   0  0  0  0  0  0  0  0  0  0  0  0
    0.8675   -0.4975    0.0000 N   0  0  0  0  0  0  0  0  0  0  0  0
    0.0000    0.0000    0.0000 C   0  0  0  0  0  0  0  0  0  0  0  0
    0.0000    1.0052    0.0000 C   0  0  0  0  0  0  0  0  0  0  0  0
    0.8675    1.5129    0.0000 N   0  0  0  0  0  0  0  0  0  0  0  0
    1.7350    1.0052    0.0000 C   0  0  0  0  0  0  0  0  0  0  0  0
    2.6025    1.5026    0.0000 C   0  0  0  0  0  0  0  0  0  0  0  0
    3.4678    1.0013    0.0000 C   0  0  0  0  0  0  0  0  0  0  0  0
    4.3375    1.4950    0.0000 C   0  0  0  0  0  0  0  0  0  0  0  0
    4.3419    2.5002    0.0000 C   0  0  0  0  0  0  0  0  0  0  0  0
    3.4766    3.0117    0.0000 C   0  0  0  0  0  0  0  0  0  0  0  0
    2.6069    2.5078    0.0000 C   0  0  0  0  0  0  0  0  0  0  0  0
    5.2116    2.9938    0.0000 C   0  0  0  0  0  0  0  0  0  0  0  0
    5.2160    3.9990    0.0000 C   0  0  0  0  0  0  0  0  0  0  0  0
    6.0857    4.4927    0.0000 C   0  0  0  0  0  0  0  0  0  0  0  0
    6.9510    3.9914    0.0000 C   0  0  0  0  0  0  0  0  0  0  0  0
    7.8185    4.4888    0.0000 C   0  0  0  0  0  0  0  0  0  0  0  0
    7.8214    5.4888    0.0000 C   0  0  0  0  0  0  0  0  0  0  0  0
    6.9569    5.9914    0.0000 O   0  0  0  0  0  0  0  0  0  0  0  0
    8.6889    5.9862    0.0000 O   0  0  0  0  0  0  0  0  0  0  0  0
    6.9466    2.9862    0.0000 C   0  0  0  0  0  0  0  0  0  0  0  0
    6.0768    2.4823    0.0000 C   0  0  0  0  0  0  0  0  0  0  0  0
   -0.8675    1.5026    0.0000 C   0  0  0  0  0  0  0  0  0  0  0  0
   -0.8704    2.5026    0.0000 S   0  0  0  0  0  0  0  0  0  0  0  0
   -1.7320    1.0001    0.0000 N   0  0  0  0  0  0  0  0  0  0  0  0
  1  2  1  0
  2  7  2  0
  2  3  1  0
  3  4  2  0
  4  5  1  0
  5  6  2  0
  6  7  1  0
  7  8  1  0
  8 13  1  0
  8  9  2  0
  9 10  1  0
 10 11  2  0
 11 12  1  0
 12 13  2  0
 14 11  1  6
 14 23  1  0
 14 15  1  0
 15 16  1  0
 16 17  1  0
 17 18  1  1
 18 19  1  0
 19 20  2  0
 19 21  1  0
 17 22  1  0
 22 23  1  0
  5 24  1  0
 24 25  2  0
 24 26  1  0
M  END
>  <SMILES>  (546) 
Cc1ncc(C(N)=S)nc1-c1ccc([C@H]2CC[C@H](CC(=O)O)CC2)cc1

>  <CollectionName>  (546) 
chembl

>  <LOG PLASMA PROTEIN BINDING (RAT) (% unbound)>  (546) 
-0.00436480540245

>  <Internal ID>  (546) 


>  <Source>  (546) 
AstraZeneca

$$$$
CHEMBL2178390
     RDKit          2D

 29 31  0  0  1  0  0  0  0  0999 V2000
    3.4670   -0.0025    0.0000 C   0  0  0  0  0  0  0  0  0  0  0  0
    2.6003   -0.5013    0.0000 C   0  0  0  0  0  0  0  0  0  0  0  0
    2.5988   -1.5013    0.0000 C   0  0  0  0  0  0  0  0  0  0  0  0
    1.7350    0.0000    0.0000 C   0  0  0  0  0  0  0  0  0  0  0  0
    0.8675   -0.4975    0.0000 N   0  0  0  0  0  0  0  0  0  0  0  0
    0.0000    0.0000    0.0000 C   0  0  0  0  0  0  0  0  0  0  0  0
   -0.8653   -0.5013    0.0000 C   0  0  0  0  0  0  0  0  0  0  0  0
    0.0000    1.0052    0.0000 C   0  0  0  0  0  0  0  0  0  0  0  0
    0.8675    1.5129    0.0000 N   0  0  0  0  0  0  0  0  0  0  0  0
    1.7350    1.0052    0.0000 C   0  0  0  0  0  0  0  0  0  0  0  0
    2.6025    1.5026    0.0000 C   0  0  0  0  0  0  0  0  0  0  0  0
    3.4670    1.0001    0.0000 O   0  0  0  0  0  0  0  0  0  0  0  0
    2.6054    2.5026    0.0000 N   0  0  0  0  0  0  0  0  0  0  0  0
   -0.8675    1.5026    0.0000 C   0  0  0  0  0  0  0  0  0  0  0  0
   -0.8719    2.5027    0.0000 C   0  0  0  0  0  0  0  0  0  0  0  0
   -1.7372    3.0039    0.0000 C   0  0  0  0  0  0  0  0  0  0  0  0
   -2.6070    2.5000    0.0000 C   0  0  0  0  0  0  0  0  0  0  0  0
   -2.6114    1.4949    0.0000 C   0  0  0  0  0  0  0  0  0  0  0  0
   -1.7373    0.9987    0.0000 C   0  0  0  0  0  0  0  0  0  0  0  0
   -3.4723    3.0012    0.0000 C   0  0  0  0  0  0  0  0  0  0  0  0
   -4.3421    2.4973    0.0000 C   0  0  0  0  0  0  0  0  0  0  0  0
   -5.2074    2.9986    0.0000 C   0  0  0  0  0  0  0  0  0  0  0  0
   -5.2118    3.9986    0.0000 C   0  0  0  0  0  0  0  0  0  0  0  0
   -6.0793    4.4960    0.0000 C   0  0  0  0  0  0  0  0  0  0  0  0
   -6.9439    3.9935    0.0000 C   0  0  0  0  0  0  0  0  0  0  0  0
   -6.9409    2.9935    0.0000 O   0  0  0  0  0  0  0  0  0  0  0  0
   -7.8114    4.4909    0.0000 O   0  0  0  0  0  0  0  0  0  0  0  0
   -4.3421    4.5025    0.0000 C   0  0  0  0  0  0  0  0  0  0  0  0
   -3.4679    4.0064    0.0000 C   0  0  0  0  0  0  0  0  0  0  0  0
  1  2  1  0
  2  3  1  0
  2  4  1  0
  4 10  2  0
  4  5  1  0
  5  6  2  0
  6  7  1  0
  6  8  1  0
  8  9  2  0
  9 10  1  0
 10 11  1  0
 11 12  2  0
 11 13  1  0
  8 14  1  0
 14 19  1  0
 14 15  2  0
 15 16  1  0
 16 17  2  0
 17 18  1  0
 18 19  2  0
 20 17  1  6
 20 29  1  0
 20 21  1  0
 21 22  1  0
 22 23  1  0
 23 24  1  1
 24 25  1  0
 25 26  2  0
 25 27  1  0
 23 28  1  0
 28 29  1  0
M  END
>  <SMILES>  (547) 
Cc1nc(C(C)C)c(C(N)=O)nc1-c1ccc([C@H]2CC[C@H](CC(=O)O)CC2)cc1

>  <CollectionName>  (547) 
chembl

>  <LOG PLASMA PROTEIN BINDING (RAT) (% unbound)>  (547) 
0.0755469613925

>  <Internal ID>  (547) 


>  <Source>  (547) 
AstraZeneca

$$$$
CHEMBL2178931
     RDKit          2D

 29 31  0  0  1  0  0  0  0  0999 V2000
   -0.8638   -1.5013    0.0000 C   0  0  0  0  0  0  0  0  0  0  0  0
   -0.8653   -0.5013    0.0000 C   0  0  0  0  0  0  0  0  0  0  0  0
   -1.7320   -0.0025    0.0000 C   0  0  0  0  0  0  0  0  0  0  0  0
    0.0000    0.0000    0.0000 C   0  0  0  0  0  0  0  0  0  0  0  0
    0.8675   -0.4975    0.0000 N   0  0  0  0  0  0  0  0  0  0  0  0
    1.7350    0.0000    0.0000 C   0  0  0  0  0  0  0  0  0  0  0  0
    2.6003   -0.5013    0.0000 C   0  0  0  0  0  0  0  0  0  0  0  0
    1.7350    1.0052    0.0000 C   0  0  0  0  0  0  0  0  0  0  0  0
    0.8675    1.5129    0.0000 N   0  0  0  0  0  0  0  0  0  0  0  0
    0.0000    1.0052    0.0000 C   0  0  0  0  0  0  0  0  0  0  0  0
   -0.8675    1.5026    0.0000 C   0  0  0  0  0  0  0  0  0  0  0  0
   -0.8719    2.5027    0.0000 C   0  0  0  0  0  0  0  0  0  0  0  0
   -1.7372    3.0039    0.0000 C   0  0  0  0  0  0  0  0  0  0  0  0
   -2.6070    2.5000    0.0000 C   0  0  0  0  0  0  0  0  0  0  0  0
   -2.6114    1.4949    0.0000 C   0  0  0  0  0  0  0  0  0  0  0  0
   -1.7373    0.9987    0.0000 C   0  0  0  0  0  0  0  0  0  0  0  0
   -3.4723    3.0012    0.0000 C   0  0  0  0  0  0  0  0  0  0  0  0
   -4.3421    2.4973    0.0000 C   0  0  0  0  0  0  0  0  0  0  0  0
   -5.2074    2.9986    0.0000 C   0  0  0  0  0  0  0  0  0  0  0  0
   -5.2118    3.9986    0.0000 C   0  0  0  0  0  0  0  0  0  0  0  0
   -6.0793    4.4960    0.0000 C   0  0  0  0  0  0  0  0  0  0  0  0
   -6.9439    3.9935    0.0000 C   0  0  0  0  0  0  0  0  0  0  0  0
   -6.9409    2.9935    0.0000 O   0  0  0  0  0  0  0  0  0  0  0  0
   -7.8114    4.4909    0.0000 O   0  0  0  0  0  0  0  0  0  0  0  0
   -4.3421    4.5025    0.0000 C   0  0  0  0  0  0  0  0  0  0  0  0
   -3.4679    4.0064    0.0000 C   0  0  0  0  0  0  0  0  0  0  0  0
    2.6025    1.5026    0.0000 C   0  0  0  0  0  0  0  0  0  0  0  0
    3.4670    1.0001    0.0000 O   0  0  0  0  0  0  0  0  0  0  0  0
    2.6054    2.5026    0.0000 N   0  0  0  0  0  0  0  0  0  0  0  0
  1  2  1  0
  2  3  1  0
  2  4  1  0
  4 10  2  0
  4  5  1  0
  5  6  2  0
  6  7  1  0
  6  8  1  0
  8  9  2  0
  9 10  1  0
 10 11  1  0
 11 16  1  0
 11 12  2  0
 12 13  1  0
 13 14  2  0
 14 15  1  0
 15 16  2  0
 17 14  1  6
 17 26  1  0
 17 18  1  0
 18 19  1  0
 19 20  1  0
 20 21  1  1
 21 22  1  0
 22 23  2  0
 22 24  1  0
 20 25  1  0
 25 26  1  0
  8 27  1  0
 27 28  2  0
 27 29  1  0
M  END
>  <SMILES>  (548) 
Cc1nc(C(C)C)c(-c2ccc([C@H]3CC[C@H](CC(=O)O)CC3)cc2)nc1C(N)=O

>  <CollectionName>  (548) 
chembl

>  <LOG PLASMA PROTEIN BINDING (RAT) (% unbound)>  (548) 
0.0755469613925

>  <Internal ID>  (548) 


>  <Source>  (548) 
AstraZeneca

$$$$
CHEMBL2179276
     RDKit          2D

 37 40  0  0  1  0  0  0  0  0999 V2000
    3.4695    7.0244    0.0000 C   0  0  0  0  0  0  0  0  0  0  0  0
    3.4709    6.0244    0.0000 C   0  0  0  0  0  0  0  0  0  0  0  0
    4.3377    5.5257    0.0000 C   0  0  0  0  0  0  0  0  0  0  0  0
    2.6056    5.5232    0.0000 C   0  0  0  0  0  0  0  0  0  0  0  0
    2.6071    4.5232    0.0000 C   0  0  0  0  0  0  0  0  0  0  0  0
    1.7418    4.0219    0.0000 N   0  0  0  0  0  0  0  0  0  0  0  0
    0.8676    4.5181    0.0000 C   0  0  0  0  0  0  0  0  0  0  0  0
   -0.0022    4.0142    0.0000 C   0  0  0  0  0  0  0  0  0  0  0  0
    0.0022    3.0142    0.0000 C   0  0  0  0  0  0  0  0  0  0  0  0
    0.8675    2.5129    0.0000 C   0  0  0  0  0  0  0  0  0  0  0  0
    1.7373    3.0168    0.0000 C   0  0  0  0  0  0  0  0  0  0  0  0
    0.8675    1.5129    0.0000 N   0  0  0  0  0  0  0  0  0  0  0  0
    0.0000    1.0052    0.0000 C   0  0  0  0  0  0  0  0  0  0  0  0
    0.0000    0.0000    0.0000 C   0  0  0  0  0  0  0  0  0  0  0  0
   -0.8653   -0.5013    0.0000 C   0  0  0  0  0  0  0  0  0  0  0  0
    0.8675   -0.4975    0.0000 C   0  0  0  0  0  0  0  0  0  0  0  0
    0.8675   -1.4975    0.0000 O   0  0  0  0  0  0  0  0  0  0  0  0
    1.7350    0.0000    0.0000 N   0  0  0  0  0  0  0  0  0  0  0  0
    1.7350    1.0052    0.0000 C   0  0  0  0  0  0  0  0  0  0  0  0
    2.6025    1.5026    0.0000 O   0  0  0  0  0  0  0  0  0  0  0  0
    3.4738    4.0244    0.0000 C   0  0  0  0  0  0  0  0  0  0  0  0
    3.4723    3.0192    0.0000 C   0  0  0  0  0  0  0  0  0  0  0  0
    4.3391    2.5204    0.0000 C   0  0  0  0  0  0  0  0  0  0  0  0
    5.2073    3.0166    0.0000 C   0  0  0  0  0  0  0  0  0  0  0  0
    6.0719    2.5141    0.0000 C   0  0  0  0  0  0  0  0  0  0  0  0
    6.0689    1.5141    0.0000 O   0  0  0  0  0  0  0  0  0  0  0  0
    6.9394    3.0115    0.0000 O   0  0  0  0  0  0  0  0  0  0  0  0
    5.2088    4.0218    0.0000 C   0  0  0  0  0  0  0  0  0  0  0  0
    6.0771    4.5180    0.0000 O   0  0  0  0  0  0  0  0  0  0  0  0
    6.0815    5.5179    0.0000 C   0  0  0  0  0  0  0  0  0  0  0  0
    5.2117    6.0218    0.0000 C   0  0  0  0  0  0  0  0  0  0  0  0
    5.2161    7.0219    0.0000 C   0  0  0  0  0  0  0  0  0  0  0  0
    6.0815    7.5231    0.0000 C   0  0  0  0  0  0  0  0  0  0  0  0
    6.9513    7.0192    0.0000 C   0  0  0  0  0  0  0  0  0  0  0  0
    7.8166    7.5204    0.0000 Cl  0  0  0  0  0  0  0  0  0  0  0  0
    6.9557    6.0141    0.0000 C   0  0  0  0  0  0  0  0  0  0  0  0
    4.3421    4.5308    0.0000 C   0  0  0  0  0  0  0  0  0  0  0  0
  1  2  1  0
  2  3  1  0
  2  4  1  0
  5  4  1  1
  5  6  1  0
  6 11  1  0
  6  7  1  0
  7  8  1  0
  8  9  1  0
  9 10  1  0
 10 11  1  0
 10 12  1  1
 12 19  1  0
 12 13  1  0
 13 14  2  0
 14 15  1  0
 14 16  1  0
 16 17  2  0
 16 18  1  0
 18 19  1  0
 19 20  2  0
  5 21  1  0
 21 37  1  0
 21 22  2  0
 22 23  1  0
 23 24  2  0
 24 25  1  0
 25 26  2  0
 25 27  1  0
 24 28  1  0
 28 29  1  0
 29 30  1  0
 30 36  1  0
 30 31  2  0
 31 32  1  0
 32 33  2  0
 33 34  1  0
 34 35  1  0
 34 36  2  0
 28 37  2  0
M  END
>  <SMILES>  (549) 
Cc1cn([C@H]2CCCN([C@@H](CC(C)C)c3ccc(C(=O)O)c(Oc4cccc(Cl)c4)c3)C2)c(=O)[nH]c1=O

>  <CollectionName>  (549) 
chembl

>  <LOG PLASMA PROTEIN BINDING (RAT) (% unbound)>  (549) 
0.204119982656

>  <Internal ID>  (549) 


>  <Source>  (549) 
AstraZeneca

$$$$
CHEMBL2180027
     RDKit          2D

 28 31  0  0  1  0  0  0  0  0999 V2000
   -6.3132   -4.1413    0.0000 C   0  0  0  0  0  0  0  0  0  0  0  0
   -5.7258   -3.3319    0.0000 O   0  0  0  0  0  0  0  0  0  0  0  0
   -4.7313   -3.4359    0.0000 C   0  0  0  0  0  0  0  0  0  0  0  0
   -4.3226   -4.3486    0.0000 C   0  0  0  0  0  0  0  0  0  0  0  0
   -3.3285   -4.4569    0.0000 C   0  0  0  0  0  0  0  0  0  0  0  0
   -2.7370   -3.6442    0.0000 C   0  0  0  0  0  0  0  0  0  0  0  0
   -3.1396   -2.7232    0.0000 C   0  0  0  0  0  0  0  0  0  0  0  0
   -4.1397   -2.6232    0.0000 C   0  0  0  0  0  0  0  0  0  0  0  0
   -4.5484   -1.7105    0.0000 C   0  0  0  0  0  0  0  0  0  0  0  0
   -1.7428   -3.7525    0.0000 C   0  0  0  0  0  0  0  0  0  0  0  0
   -1.9542   -4.7316    0.0000 N   0  0  0  0  0  0  0  0  0  0  0  0
   -1.0897   -5.2372    0.0000 C   0  0  0  0  0  0  0  0  0  0  0  0
   -0.9894   -6.2321    0.0000 C   0  0  0  0  0  0  0  0  0  0  0  0
   -0.3446   -4.5702    0.0000 C   0  0  0  0  0  0  0  0  0  0  0  0
   -0.7432   -3.6526    0.0000 N   0  0  0  0  0  0  0  0  0  0  0  0
    0.6323   -4.7839    0.0000 N   0  0  0  0  0  0  0  0  0  0  0  0
   -1.7351   -2.0025    0.0000 C   0  0  0  0  0  0  0  0  0  0  0  0
   -2.6048   -1.4986    0.0000 C   0  0  0  0  0  0  0  0  0  0  0  0
   -2.6004   -0.4986    0.0000 C   0  0  0  0  0  0  0  0  0  0  0  0
   -1.7351    0.0026    0.0000 C   0  0  0  0  0  0  0  0  0  0  0  0
   -0.8653   -0.5013    0.0000 C   0  0  0  0  0  0  0  0  0  0  0  0
   -0.8609   -1.5064    0.0000 C   0  0  0  0  0  0  0  0  0  0  0  0
    0.0000    0.0000    0.0000 C   0  0  0  0  0  0  0  0  0  0  0  0
    0.0000    1.0052    0.0000 C   0  0  0  0  0  0  0  0  0  0  0  0
    0.8675    1.5129    0.0000 N   0  0  0  0  0  0  0  0  0  0  0  0
    1.7350    1.0052    0.0000 C   0  0  0  0  0  0  0  0  0  0  0  0
    1.7350    0.0000    0.0000 N   0  0  0  0  0  0  0  0  0  0  0  0
    0.8675   -0.4975    0.0000 C   0  0  0  0  0  0  0  0  0  0  0  0
  1  2  1  0
  2  3  1  0
  3  8  2  0
  3  4  1  0
  4  5  2  0
  5  6  1  0
  6  7  2  0
  7  8  1  0
  8  9  1  0
  6 10  1  0
 10 15  1  0
 10 11  1  0
 11 12  2  0
 12 13  1  0
 12 14  1  0
 14 15  2  0
 14 16  1  0
 10 17  1  0
 17 22  1  0
 17 18  2  0
 18 19  1  0
 19 20  2  0
 20 21  1  0
 21 22  2  0
 21 23  1  0
 23 28  1  0
 23 24  2  0
 24 25  1  0
 25 26  2  0
 26 27  1  0
 27 28  2  0
M  END
>  <SMILES>  (550) 
COc1ccc(C2(c3cccc(-c4cncnc4)c3)N=C(C)C(N)=N2)cc1C

>  <CollectionName>  (550) 
chembl

>  <LOG PLASMA PROTEIN BINDING (RAT) (% unbound)>  (550) 
1.43280900503

>  <Internal ID>  (550) 


>  <Source>  (550) 
AstraZeneca

$$$$
CHEMBL479
     RDKit          2D

 25 28  0  0  1  0  0  0  0  0999 V2000
    6.9475    0.0016    0.0000 C   0  0  0  0  0  0  0  0  0  0  0  0
    6.0818    0.5022    0.0000 S   0  0  0  0  0  0  0  0  0  0  0  0
    5.2154    0.0028    0.0000 C   0  0  0  0  0  0  0  0  0  0  0  0
    5.2158   -1.0053    0.0000 C   0  0  0  0  0  0  0  0  0  0  0  0
    4.3422   -1.5068    0.0000 C   0  0  0  0  0  0  0  0  0  0  0  0
    3.4738   -1.0059    0.0000 C   0  0  0  0  0  0  0  0  0  0  0  0
    2.6038   -1.5046    0.0000 S   0  0  0  0  0  0  0  0  0  0  0  0
    1.7371   -1.0057    0.0000 C   0  0  0  0  0  0  0  0  0  0  0  0
    0.8679   -1.5033    0.0000 C   0  0  0  0  0  0  0  0  0  0  0  0
    0.0000   -1.0057    0.0000 C   0  0  0  0  0  0  0  0  0  0  0  0
    0.0000    0.0000    0.0000 C   0  0  0  0  0  0  0  0  0  0  0  0
    0.8679    0.5079    0.0000 C   0  0  0  0  0  0  0  0  0  0  0  0
    1.7358   -0.0000    0.0000 C   0  0  0  0  0  0  0  0  0  0  0  0
    2.6012    0.5067    0.0000 N   0  0  0  0  0  0  0  0  0  0  0  0
    2.5985    1.5067    0.0000 C   0  0  0  0  0  0  0  0  0  0  0  0
    3.4632    2.0090    0.0000 C   0  0  0  0  0  0  0  0  0  0  0  0
    3.4605    3.0090    0.0000 C   0  0  0  0  0  0  0  0  0  0  0  0
    2.5872    3.5067    0.0000 C   0  0  0  0  0  0  0  0  0  0  0  0
    2.5845    4.5067    0.0000 C   0  0  0  0  0  0  0  0  0  0  0  0
    3.4462    5.0141    0.0000 C   0  0  0  0  0  0  0  0  0  0  0  0
    4.3196    4.5164    0.0000 C   0  0  0  0  0  0  0  0  0  0  0  0
    4.3312    3.5113    0.0000 N   0  0  0  0  0  0  0  0  0  0  0  0
    5.2000    3.0162    0.0000 C   0  0  0  0  0  0  0  0  0  0  0  0
    3.4735    0.0022    0.0000 C   0  0  0  0  0  0  0  0  0  0  0  0
    4.3415    0.5094    0.0000 C   0  0  0  0  0  0  0  0  0  0  0  0
  1  2  1  0
  2  3  1  0
  3 25  2  0
  3  4  1  0
  4  5  2  0
  5  6  1  0
  6 24  2  0
  6  7  1  0
  7  8  1  0
  8 13  2  0
  8  9  1  0
  9 10  2  0
 10 11  1  0
 11 12  2  0
 12 13  1  0
 13 14  1  0
 14 15  1  0
 15 16  1  0
 16 17  1  0
 17 22  1  0
 17 18  1  0
 18 19  1  0
 19 20  1  0
 20 21  1  0
 21 22  1  0
 22 23  1  0
 14 24  1  0
 24 25  1  0
M  END
>  <SMILES>  (551) 
CSc1ccc2c(c1)N(CCC1CCCCN1C)c1ccccc1S2

>  <CollectionName>  (551) 
chembl

>  <LOG PLASMA PROTEIN BINDING (RAT) (% unbound)>  (551) 
-0.154901959986

>  <Internal ID>  (551) 


>  <Source>  (551) 
AstraZeneca

$$$$
CHEMBL1454310
     RDKit          2D

 18 20  0  0  1  0  0  0  0  0999 V2000
    0.8676   -1.4978    0.0000 C   0  0  0  0  0  0  0  0  0  0  0  0
    0.8679   -0.4978    0.0000 C   0  0  0  0  0  0  0  0  0  0  0  0
    0.0000    0.0000    0.0000 C   0  0  0  0  0  0  0  0  0  0  0  0
    0.0000    1.0056    0.0000 C   0  0  0  0  0  0  0  0  0  0  0  0
   -0.8675    1.5031    0.0000 I   0  0  0  0  0  0  0  0  0  0  0  0
    0.8679    1.5134    0.0000 C   0  0  0  0  0  0  0  0  0  0  0  0
    1.7358    1.0056    0.0000 C   0  0  0  0  0  0  0  0  0  0  0  0
    2.6012    1.5124    0.0000 C   0  0  0  0  0  0  0  0  0  0  0  0
    2.8140    2.4976    0.0000 C   0  0  0  0  0  0  0  0  0  0  0  0
    3.8170    2.5999    0.0000 C   0  0  0  0  0  0  0  0  0  0  0  0
    4.2240    1.6775    0.0000 C   0  0  0  0  0  0  0  0  0  0  0  0
    3.4726    1.0054    0.0000 C   0  0  0  0  0  0  0  0  0  0  0  0
    3.4748    0.0022    0.0000 C   0  0  0  0  0  0  0  0  0  0  0  0
    2.6038   -0.4989    0.0000 N   0  0  0  0  0  0  0  0  0  0  0  0
    1.7371   -0.0000    0.0000 C   0  0  0  0  0  0  0  0  0  0  0  0
    4.3410   -0.4975    0.0000 C   0  0  0  0  0  0  0  0  0  0  0  0
    4.3413   -1.4975    0.0000 O   0  0  0  0  0  0  0  0  0  0  0  0
    5.2069    0.0028    0.0000 O   0  0  0  0  0  0  0  0  0  0  0  0
  1  2  1  0
  2 15  2  0
  2  3  1  0
  3  4  2  0
  4  5  1  0
  4  6  1  0
  6  7  2  0
  7 15  1  0
  7  8  1  0
  8 12  1  0
  8  9  1  0
  9 10  2  0
 10 11  1  0
 11 12  1  0
 12 13  1  0
 13 14  1  0
 14 15  1  0
 13 16  1  0
 16 17  2  0
 16 18  1  0
M  END
>  <SMILES>  (552) 
Cc1cc(I)cc2c1NC(C(=O)O)C1CC=CC21

>  <CollectionName>  (552) 
chembl

>  <LOG PLASMA PROTEIN BINDING (RAT) (% unbound)>  (552) 
-0.154901959986

>  <Internal ID>  (552) 


>  <Source>  (552) 
AstraZeneca

$$$$
CHEMBL62
     RDKit          2D

 20 22  0  0  1  0  0  0  0  0999 V2000
   -1.0000    0.0007    0.0000 C   0  0  0  0  0  0  0  0  0  0  0  0
    0.0000    0.0000    0.0000 N   0  0  0  0  0  0  0  0  0  0  0  0
    0.4360   -0.9143    0.0000 C   0  0  0  0  0  0  0  0  0  0  0  0
    1.4241   -1.1362    0.0000 C   0  0  0  0  0  0  0  0  0  0  0  0
    2.2192   -0.5026    0.0000 C   0  0  0  0  0  0  0  0  0  0  0  0
    3.0837   -1.0052    0.0000 C   0  0  0  0  0  0  0  0  0  0  0  0
    3.9567   -0.5076    0.0000 C   0  0  0  0  0  0  0  0  0  0  0  0
    4.8206   -1.0112    0.0000 Cl  0  0  0  0  0  0  0  0  0  0  0  0
    3.9596    0.4979    0.0000 C   0  0  0  0  0  0  0  0  0  0  0  0
    4.8276    0.9945    0.0000 O   0  0  0  0  0  0  0  0  0  0  0  0
    3.0895    1.0060    0.0000 C   0  0  0  0  0  0  0  0  0  0  0  0
    2.2220    0.5029    0.0000 C   0  0  0  0  0  0  0  0  0  0  0  0
    1.4290    1.1418    0.0000 C   0  0  0  0  0  0  0  0  0  0  0  0
    0.4384    0.9159    0.0000 C   0  0  0  0  0  0  0  0  0  0  0  0
    1.6540    2.1161    0.0000 C   0  0  0  0  0  0  0  0  0  0  0  0
    0.9169    2.7996    0.0000 C   0  0  0  0  0  0  0  0  0  0  0  0
    1.1419    3.7740    0.0000 C   0  0  0  0  0  0  0  0  0  0  0  0
    2.0966    4.0719    0.0000 C   0  0  0  0  0  0  0  0  0  0  0  0
    2.8337    3.3884    0.0000 C   0  0  0  0  0  0  0  0  0  0  0  0
    2.6162    2.4071    0.0000 C   0  0  0  0  0  0  0  0  0  0  0  0
  1  2  1  0
  2 14  1  0
  2  3  1  0
  3  4  1  0
  4  5  1  0
  5 12  2  0
  5  6  1  0
  6  7  2  0
  7  8  1  0
  7  9  1  0
  9 10  1  0
  9 11  2  0
 11 12  1  0
 12 13  1  0
 13 14  1  0
 13 15  1  6
 15 20  1  0
 15 16  2  0
 16 17  1  0
 17 18  2  0
 18 19  1  0
 19 20  2  0
M  END
>  <SMILES>  (553) 
CN1CCc2cc(Cl)c(O)cc2[C@@H](c2ccccc2)C1

>  <CollectionName>  (553) 
chembl

>  <LOG PLASMA PROTEIN BINDING (RAT) (% unbound)>  (553) 
1.22942584792

>  <Internal ID>  (553) 


>  <Source>  (553) 
AstraZeneca

$$$$
CHEMBL7662
     RDKit          2D

 24 26  0  0  1  0  0  0  0  0999 V2000
    3.3380   -3.6914    0.0000 C   0  0  0  0  0  0  0  0  0  0  0  0
    3.3395   -2.6914    0.0000 O   0  0  0  0  0  0  0  0  0  0  0  0
    4.2063   -2.1927    0.0000 C   0  0  0  0  0  0  0  0  0  0  0  0
    5.0723   -2.6928    0.0000 C   0  0  0  0  0  0  0  0  0  0  0  0
    5.9413   -2.1979    0.0000 C   0  0  0  0  0  0  0  0  0  0  0  0
    5.9443   -1.1927    0.0000 C   0  0  0  0  0  0  0  0  0  0  0  0
    6.8133   -0.6979    0.0000 Cl  0  0  0  0  0  0  0  0  0  0  0  0
    5.0783   -0.6824    0.0000 C   0  0  0  0  0  0  0  0  0  0  0  0
    4.2093   -1.1876    0.0000 C   0  0  0  0  0  0  0  0  0  0  0  0
    2.6938   -0.3125    0.0000 C   0  0  0  0  0  0  0  0  0  0  0  0
    2.2870   -1.2260    0.0000 F   0  0  0  0  0  0  0  0  0  0  0  0
    3.2858    0.5023    0.0000 C   0  0  0  0  0  0  0  0  0  0  0  0
    4.2858    0.5024    0.0000 O   0  0  0  0  0  0  0  0  0  0  0  0
    2.6938    1.3169    0.0000 N   0  0  0  0  0  0  0  0  0  0  0  0
    1.7360    1.0058    0.0000 C   0  0  0  0  0  0  0  0  0  0  0  0
    0.8680    1.5138    0.0000 C   0  0  0  0  0  0  0  0  0  0  0  0
   -0.0000    1.0058    0.0000 C   0  0  0  0  0  0  0  0  0  0  0  0
    0.0000    0.0000    0.0000 C   0  0  0  0  0  0  0  0  0  0  0  0
    0.8680   -0.4978    0.0000 C   0  0  0  0  0  0  0  0  0  0  0  0
    1.7360   -0.0012    0.0000 C   0  0  0  0  0  0  0  0  0  0  0  0
   -0.8675    1.5032    0.0000 C   0  0  0  0  0  0  0  0  0  0  0  0
   -1.3649    0.6357    0.0000 F   0  0  0  0  0  0  0  0  0  0  0  0
   -0.3701    2.3707    0.0000 F   0  0  0  0  0  0  0  0  0  0  0  0
   -1.7350    2.0007    0.0000 F   0  0  0  0  0  0  0  0  0  0  0  0
  1  2  1  0
  2  3  1  0
  3  9  2  0
  3  4  1  0
  4  5  2  0
  5  6  1  0
  6  7  1  0
  6  8  2  0
  8  9  1  0
  9 10  1  0
 10 20  1  0
 10 11  1  0
 10 12  1  0
 12 13  2  0
 12 14  1  0
 14 15  1  0
 15 20  2  0
 15 16  1  0
 16 17  2  0
 17 18  1  0
 18 19  2  0
 19 20  1  0
 17 21  1  0
 21 22  1  0
 21 23  1  0
 21 24  1  0
M  END
>  <SMILES>  (554) 
COc1ccc(Cl)cc1C1(F)C(=O)Nc2cc(C(F)(F)F)ccc21

>  <CollectionName>  (554) 
chembl

>  <LOG PLASMA PROTEIN BINDING (RAT) (% unbound)>  (554) 
-0.823908740944

>  <Internal ID>  (554) 


>  <Source>  (554) 
AstraZeneca

$$$$
CHEMBL41355
     RDKit          2D

 22 23  0  0  0  0  0  0  0  0999 V2000
   -6.0771   -6.4922    0.0000 C   0  0  0  0  0  0  0  0  0  0  0  0
   -5.2096   -5.9947    0.0000 C   0  0  0  0  0  0  0  0  0  0  0  0
   -5.2066   -4.9947    0.0000 O   0  0  0  0  0  0  0  0  0  0  0  0
   -4.3391   -4.4973    0.0000 C   0  0  0  0  0  0  0  0  0  0  0  0
   -3.4746   -4.9998    0.0000 O   0  0  0  0  0  0  0  0  0  0  0  0
   -4.3362   -3.4973    0.0000 N   0  0  0  0  0  0  0  0  0  0  0  0
   -3.4687   -2.9999    0.0000 C   0  0  0  0  0  0  0  0  0  0  0  0
   -3.4643   -1.9998    0.0000 C   0  0  0  0  0  0  0  0  0  0  0  0
   -2.5989   -1.4986    0.0000 C   0  0  0  0  0  0  0  0  0  0  0  0
   -1.7291   -2.0025    0.0000 C   0  0  0  0  0  0  0  0  0  0  0  0
   -0.8638   -1.5013    0.0000 N   0  0  0  0  0  0  0  0  0  0  0  0
   -0.8653   -0.5013    0.0000 C   0  0  0  0  0  0  0  0  0  0  0  0
    0.0000    0.0000    0.0000 C   0  0  0  0  0  0  0  0  0  0  0  0
    0.8675   -0.4975    0.0000 C   0  0  0  0  0  0  0  0  0  0  0  0
    1.7350    0.0000    0.0000 C   0  0  0  0  0  0  0  0  0  0  0  0
    1.7350    1.0052    0.0000 C   0  0  0  0  0  0  0  0  0  0  0  0
    2.6025    1.5026    0.0000 F   0  0  0  0  0  0  0  0  0  0  0  0
    0.8675    1.5129    0.0000 C   0  0  0  0  0  0  0  0  0  0  0  0
   -0.0000    1.0052    0.0000 C   0  0  0  0  0  0  0  0  0  0  0  0
   -1.7247   -3.0076    0.0000 C   0  0  0  0  0  0  0  0  0  0  0  0
   -2.5989   -3.5038    0.0000 C   0  0  0  0  0  0  0  0  0  0  0  0
   -2.6033   -4.5038    0.0000 N   0  0  0  0  0  0  0  0  0  0  0  0
  1  2  1  0
  2  3  1  0
  3  4  1  0
  4  5  2  0
  4  6  1  0
  6  7  1  0
  7 21  2  0
  7  8  1  0
  8  9  2  0
  9 10  1  0
 10 11  1  0
 11 12  1  0
 12 13  1  0
 13 19  1  0
 13 14  2  0
 14 15  1  0
 15 16  2  0
 16 17  1  0
 16 18  1  0
 18 19  2  0
 10 20  2  0
 20 21  1  0
 21 22  1  0
M  END
>  <SMILES>  (555) 
CCOC(=O)Nc1ccc(NCc2ccc(F)cc2)cc1N

>  <CollectionName>  (555) 
chembl

>  <LOG PLASMA PROTEIN BINDING (RAT) (% unbound)>  (555) 
1.30276370847

>  <Internal ID>  (555) 


>  <Source>  (555) 
AstraZeneca

$$$$
CHEMBL41547
     RDKit          2D

 65 70  0  0  1  0  0  0  0  0999 V2000
   10.3506   -1.9086    0.0000 C   0  0  0  0  0  0  0  0  0  0  0  0
    9.4856   -2.4103    0.0000 C   0  0  0  0  0  0  0  0  0  0  0  0
    9.4876   -3.4103    0.0000 O   0  0  0  0  0  0  0  0  0  0  0  0
    8.6186   -1.9121    0.0000 N   0  0  0  0  0  0  0  0  0  0  0  0
    7.7535   -2.4138    0.0000 C   0  0  0  0  0  0  0  0  0  0  0  0
    7.7555   -3.4138    0.0000 C   0  0  0  0  0  0  0  0  0  0  0  0
    6.8905   -3.9155    0.0000 C   0  0  0  0  0  0  0  0  0  0  0  0
    6.8955   -4.9207    0.0000 C   0  0  0  0  0  0  0  0  0  0  0  0
    6.0305   -5.4225    0.0000 C   0  0  0  0  0  0  0  0  0  0  0  0
    5.1605   -4.9293    0.0000 C   0  0  0  0  0  0  0  0  0  0  0  0
    5.1555   -3.9241    0.0000 C   0  0  0  0  0  0  0  0  0  0  0  0
    6.0205   -3.4121    0.0000 C   0  0  0  0  0  0  0  0  0  0  0  0
    6.8865   -1.9155    0.0000 C   0  0  0  0  0  0  0  0  0  0  0  0
    6.8845   -0.9155    0.0000 O   0  0  0  0  0  0  0  0  0  0  0  0
    6.0215   -2.4173    0.0000 N   0  0  0  0  0  0  0  0  0  0  0  0
    4.5042   -1.5453    0.0000 C   0  0  0  0  0  0  0  0  0  0  0  0
    3.6002   -2.0680    0.0000 C   0  0  0  0  0  0  0  0  0  0  0  0
    2.6984   -1.5516    0.0000 C   0  0  0  0  0  0  0  0  0  0  0  0
    1.7977   -2.0711    0.0000 C   0  0  0  0  0  0  0  0  0  0  0  0
    0.8978   -1.5522    0.0000 N   0  0  0  0  0  0  0  0  0  0  0  0
    0.8942   -0.5185    0.0000 C   0  0  0  0  0  0  0  0  0  0  0  0
    0.0286   -1.0192    0.0000 O   0  0  0  0  0  0  0  0  0  0  0  0
    0.0000    0.0000    0.0000 C   0  0  0  0  0  0  0  0  0  0  0  0
   -0.8664   -0.4993    0.0000 C   0  0  0  0  0  0  0  0  0  0  0  0
   -1.7321    0.0015    0.0000 C   0  0  0  0  0  0  0  0  0  0  0  0
   -2.5985   -0.4978    0.0000 C   0  0  0  0  0  0  0  0  0  0  0  0
   -3.4641    0.0029    0.0000 N   0  0  0  0  0  0  0  0  0  0  0  0
   -4.3305   -0.4964    0.0000 C   0  0  0  0  0  0  0  0  0  0  0  0
   -4.3314   -1.4964    0.0000 N   0  0  0  0  0  0  0  0  0  0  0  0
   -5.1962    0.0044    0.0000 N   0  0  0  0  0  0  0  0  0  0  0  0
   -0.0002    1.0326    0.0000 N   0  0  0  0  0  0  0  0  0  0  0  0
    0.8883    1.5491    0.0000 C   0  0  0  0  0  0  0  0  0  0  0  0
    0.0215    2.0478    0.0000 O   0  0  0  0  0  0  0  0  0  0  0  0
    0.8883    2.5878    0.0000 C   0  0  0  0  0  0  0  0  0  0  0  0
    0.0208    3.0853    0.0000 C   0  0  0  0  0  0  0  0  0  0  0  0
    0.0179    4.0853    0.0000 C   0  0  0  0  0  0  0  0  0  0  0  0
    0.8310    4.6797    0.0000 C   0  0  0  0  0  0  0  0  0  0  0  0
    0.5169    5.6364    0.0000 N   0  0  0  0  0  0  0  0  0  0  0  0
   -0.4902    5.6335    0.0000 C   0  0  0  0  0  0  0  0  0  0  0  0
   -1.1609    6.3829    0.0000 C   0  0  0  0  0  0  0  0  0  0  0  0
   -2.1428    6.1651    0.0000 C   0  0  0  0  0  0  0  0  0  0  0  0
   -2.4508    5.2076    0.0000 C   0  0  0  0  0  0  0  0  0  0  0  0
   -1.7769    4.4680    0.0000 C   0  0  0  0  0  0  0  0  0  0  0  0
   -0.7985    4.6749    0.0000 C   0  0  0  0  0  0  0  0  0  0  0  0
    1.7847    3.1123    0.0000 N   0  0  0  0  0  0  0  0  0  0  0  0
    2.6812    2.5878    0.0000 C   0  0  0  0  0  0  0  0  0  0  0  0
    2.6810    3.5878    0.0000 O   0  0  0  0  0  0  0  0  0  0  0  0
    3.5750    3.1111    0.0000 C   0  0  0  0  0  0  0  0  0  0  0  0
    3.5723    4.1111    0.0000 C   0  0  0  0  0  0  0  0  0  0  0  0
    4.4370    4.6134    0.0000 C   0  0  0  0  0  0  0  0  0  0  0  0
    4.4314    5.6186    0.0000 C   0  0  0  0  0  0  0  0  0  0  0  0
    5.2961    6.1209    0.0000 C   0  0  0  0  0  0  0  0  0  0  0  0
    6.1664    5.6283    0.0000 C   0  0  0  0  0  0  0  0  0  0  0  0
    6.1720    4.6231    0.0000 C   0  0  0  0  0  0  0  0  0  0  0  0
    5.3074    4.1106    0.0000 C   0  0  0  0  0  0  0  0  0  0  0  0
    4.4760    2.5900    0.0000 N   0  0  0  0  0  0  0  0  0  0  0  0
    4.5024    1.5904    0.0000 C   0  0  0  0  0  0  0  0  0  0  0  0
    5.3622    2.1010    0.0000 O   0  0  0  0  0  0  0  0  0  0  0  0
    5.4100    1.0641    0.0000 C   0  0  0  0  0  0  0  0  0  0  0  0
    6.4097    1.3794    0.0000 C   0  0  0  0  0  0  0  0  0  0  0  0
    7.0186    0.5261    0.0000 C   0  0  0  0  0  0  0  0  0  0  0  0
    6.3951   -0.3165    0.0000 C   0  0  0  0  0  0  0  0  0  0  0  0
    5.4010    0.0160    0.0000 N   0  0  0  0  0  0  0  0  0  0  0  0
    4.5007   -0.5042    0.0000 C   0  0  0  0  0  0  0  0  0  0  0  0
    5.3677   -1.0026    0.0000 O   0  0  0  0  0  0  0  0  0  0  0  0
  1  2  1  0
  2  3  2  0
  2  4  1  0
  4  5  1  0
  5  6  1  1
  6  7  1  0
  7 12  1  0
  7  8  2  0
  8  9  1  0
  9 10  2  0
 10 11  1  0
 11 12  2  0
  5 13  1  0
 13 14  2  0
 13 15  1  0
 16 15  1  1
 16 64  1  0
 16 17  1  0
 17 18  1  0
 18 19  1  0
 19 20  1  0
 20 21  1  0
 21 22  2  0
 21 23  1  0
 23 24  1  6
 24 25  1  0
 25 26  1  0
 26 27  1  0
 27 28  2  0
 28 29  1  0
 28 30  1  0
 23 31  1  0
 31 32  1  0
 32 33  2  0
 32 34  1  0
 34 35  1  6
 35 36  1  0
 36 44  1  0
 36 37  2  0
 37 38  1  0
 38 39  1  0
 39 44  2  0
 39 40  1  0
 40 41  2  0
 41 42  1  0
 42 43  2  0
 43 44  1  0
 34 45  1  0
 45 46  1  0
 46 47  2  0
 46 48  1  0
 48 49  1  1
 49 50  1  0
 50 55  1  0
 50 51  1  0
 51 52  1  0
 52 53  1  0
 53 54  1  0
 54 55  1  0
 48 56  1  0
 56 57  1  0
 57 58  2  0
 57 59  1  0
 59 63  1  0
 59 60  1  6
 60 61  1  0
 61 62  1  0
 62 63  1  0
 63 64  1  0
 64 65  2  0
M  END
>  <SMILES>  (556) 
CC(=O)N[C@@H](Cc1ccccc1)C(=O)N[C@H]1CCCNC(=O)[C@H](CCCN=C(N)N)NC(=O)[C@H](Cc2c[nH]c3ccccc23)NC(=O)[C@@H](CC2CCCCC2)NC(=O)[C@@H]2CCCN2C1=O

>  <CollectionName>  (556) 
chembl

>  <LOG PLASMA PROTEIN BINDING (RAT) (% unbound)>  (556) 
1.21272015442

>  <Internal ID>  (556) 


>  <Source>  (556) 
AstraZeneca

$$$$
CHEMBL51
     RDKit          2D

 29 32  0  0  0  0  0  0  0  0999 V2000
    7.8091   -7.5084    0.0000 F   0  0  0  0  0  0  0  0  0  0  0  0
    7.8136   -6.5084    0.0000 C   0  0  0  0  0  0  0  0  0  0  0  0
    6.9438   -6.0045    0.0000 C   0  0  0  0  0  0  0  0  0  0  0  0
    6.9482   -5.0044    0.0000 C   0  0  0  0  0  0  0  0  0  0  0  0
    7.8136   -4.5032    0.0000 C   0  0  0  0  0  0  0  0  0  0  0  0
    8.6834   -5.0072    0.0000 C   0  0  0  0  0  0  0  0  0  0  0  0
    8.6878   -6.0123    0.0000 C   0  0  0  0  0  0  0  0  0  0  0  0
    7.8137   -3.5032    0.0000 C   0  0  0  0  0  0  0  0  0  0  0  0
    8.6797   -3.0033    0.0000 O   0  0  0  0  0  0  0  0  0  0  0  0
    6.9477   -3.0032    0.0000 C   0  0  0  0  0  0  0  0  0  0  0  0
    6.0830   -3.5056    0.0000 C   0  0  0  0  0  0  0  0  0  0  0  0
    5.2126   -3.0030    0.0000 C   0  0  0  0  0  0  0  0  0  0  0  0
    5.2067   -1.9978    0.0000 N   0  0  0  0  0  0  0  0  0  0  0  0
    4.3407   -1.4978    0.0000 C   0  0  0  0  0  0  0  0  0  0  0  0
    4.3408   -0.4978    0.0000 C   0  0  0  0  0  0  0  0  0  0  0  0
    3.4748    0.0023    0.0000 N   0  0  0  0  0  0  0  0  0  0  0  0
    3.4735    1.0079    0.0000 C   0  0  0  0  0  0  0  0  0  0  0  0
    4.3394    1.5082    0.0000 O   0  0  0  0  0  0  0  0  0  0  0  0
    2.6012    1.5123    0.0000 N   0  0  0  0  0  0  0  0  0  0  0  0
    1.7358    1.0056    0.0000 C   0  0  0  0  0  0  0  0  0  0  0  0
    0.8679    1.5135    0.0000 C   0  0  0  0  0  0  0  0  0  0  0  0
    0.0000    1.0056    0.0000 C   0  0  0  0  0  0  0  0  0  0  0  0
    0.0000    0.0000    0.0000 C   0  0  0  0  0  0  0  0  0  0  0  0
    0.8679   -0.4977    0.0000 C   0  0  0  0  0  0  0  0  0  0  0  0
    1.7371    0.0000    0.0000 C   0  0  0  0  0  0  0  0  0  0  0  0
    2.6038   -0.4989    0.0000 C   0  0  0  0  0  0  0  0  0  0  0  0
    2.6037   -1.4989    0.0000 O   0  0  0  0  0  0  0  0  0  0  0  0
    6.0802   -1.5005    0.0000 C   0  0  0  0  0  0  0  0  0  0  0  0
    6.9507   -2.0031    0.0000 C   0  0  0  0  0  0  0  0  0  0  0  0
  1  2  1  0
  2  7  2  0
  2  3  1  0
  3  4  2  0
  4  5  1  0
  5  6  2  0
  6  7  1  0
  5  8  1  0
  8  9  2  0
  8 10  1  0
 10 29  1  0
 10 11  1  0
 11 12  1  0
 12 13  1  0
 13 14  1  0
 14 15  1  0
 15 16  1  0
 16 26  1  0
 16 17  1  0
 17 18  2  0
 17 19  1  0
 19 20  1  0
 20 25  2  0
 20 21  1  0
 21 22  2  0
 22 23  1  0
 23 24  2  0
 24 25  1  0
 25 26  1  0
 26 27  2  0
 13 28  1  0
 28 29  1  0
M  END
>  <SMILES>  (557) 
O=C(c1ccc(F)cc1)C1CCN(CCn2c(=O)[nH]c3ccccc3c2=O)CC1

>  <CollectionName>  (557) 
chembl

>  <LOG PLASMA PROTEIN BINDING (RAT) (% unbound)>  (557) 
-0.193820026016

>  <Internal ID>  (557) 


>  <Source>  (557) 
AstraZeneca

$$$$
CHEMBL457
     RDKit          2D

 18 18  0  0  0  0  0  0  0  0999 V2000
   -0.8675    1.5026    0.0000 C   0  0  0  0  0  0  0  0  0  0  0  0
    0.0000    1.0052    0.0000 C   0  0  0  0  0  0  0  0  0  0  0  0
    0.0000    0.0000    0.0000 C   0  0  0  0  0  0  0  0  0  0  0  0
    0.8675   -0.4975    0.0000 C   0  0  0  0  0  0  0  0  0  0  0  0
    1.7350   -0.0000    0.0000 C   0  0  0  0  0  0  0  0  0  0  0  0
    2.6003   -0.5013    0.0000 C   0  0  0  0  0  0  0  0  0  0  0  0
    1.7350    1.0052    0.0000 C   0  0  0  0  0  0  0  0  0  0  0  0
    2.6025    1.5026    0.0000 O   0  0  0  0  0  0  0  0  0  0  0  0
    3.4670    1.0001    0.0000 C   0  0  0  0  0  0  0  0  0  0  0  0
    4.3345    1.4975    0.0000 C   0  0  0  0  0  0  0  0  0  0  0  0
    5.1991    0.9950    0.0000 C   0  0  0  0  0  0  0  0  0  0  0  0
    6.0666    1.4924    0.0000 C   0  0  0  0  0  0  0  0  0  0  0  0
    6.5640    0.6249    0.0000 C   0  0  0  0  0  0  0  0  0  0  0  0
    5.5691    2.3599    0.0000 C   0  0  0  0  0  0  0  0  0  0  0  0
    6.9341    1.9899    0.0000 C   0  0  0  0  0  0  0  0  0  0  0  0
    7.7986    1.4873    0.0000 O   0  0  0  0  0  0  0  0  0  0  0  0
    6.9370    2.9899    0.0000 O   0  0  0  0  0  0  0  0  0  0  0  0
    0.8675    1.5129    0.0000 C   0  0  0  0  0  0  0  0  0  0  0  0
  1  2  1  0
  2 18  2  0
  2  3  1  0
  3  4  2  0
  4  5  1  0
  5  6  1  0
  5  7  2  0
  7  8  1  0
  8  9  1  0
  9 10  1  0
 10 11  1  0
 11 12  1  0
 12 13  1  0
 12 14  1  0
 12 15  1  0
 15 16  2  0
 15 17  1  0
  7 18  1  0
M  END
>  <SMILES>  (558) 
Cc1ccc(C)c(OCCCC(C)(C)C(=O)O)c1

>  <CollectionName>  (558) 
chembl

>  <LOG PLASMA PROTEIN BINDING (RAT) (% unbound)>  (558) 
0.184691430818

>  <Internal ID>  (558) 


>  <Source>  (558) 
AstraZeneca

$$$$
CHEMBL1210207
     RDKit          2D

 36 39  0  0  0  0  0  0  0  0999 V2000
    3.4532   -6.0064    0.0000 C   0  0  0  0  0  0  0  0  0  0  0  0
    4.3214   -5.5102    0.0000 C   0  0  0  0  0  0  0  0  0  0  0  0
    4.3258   -4.5102    0.0000 O   0  0  0  0  0  0  0  0  0  0  0  0
    5.1941   -4.0140    0.0000 C   0  0  0  0  0  0  0  0  0  0  0  0
    5.1956   -3.0140    0.0000 C   0  0  0  0  0  0  0  0  0  0  0  0
    6.0683   -2.5152    0.0000 C   0  0  0  0  0  0  0  0  0  0  0  0
    6.0697   -1.5152    0.0000 C   0  0  0  0  0  0  0  0  0  0  0  0
    5.2044   -1.0140    0.0000 N   0  0  0  0  0  0  0  0  0  0  0  0
    5.2000   -0.0089    0.0000 C   0  0  0  0  0  0  0  0  0  0  0  0
    4.3302    0.4950    0.0000 C   0  0  0  0  0  0  0  0  0  0  0  0
    3.4648   -0.0063    0.0000 C   0  0  0  0  0  0  0  0  0  0  0  0
    3.4605   -1.0063    0.0000 C   0  0  0  0  0  0  0  0  0  0  0  0
    4.3303   -1.5102    0.0000 C   0  0  0  0  0  0  0  0  0  0  0  0
    2.5995    0.4950    0.0000 N   0  0  0  0  0  0  0  0  0  0  0  0
    1.7328   -0.0038    0.0000 C   0  0  0  0  0  0  0  0  0  0  0  0
    1.7313   -1.0038    0.0000 O   0  0  0  0  0  0  0  0  0  0  0  0
    0.8675    0.4975    0.0000 C   0  0  0  0  0  0  0  0  0  0  0  0
    0.8675    1.5027    0.0000 C   0  0  0  0  0  0  0  0  0  0  0  0
   -0.0000    2.0104    0.0000 N   0  0  0  0  0  0  0  0  0  0  0  0
   -0.8675    1.5027    0.0000 C   0  0  0  0  0  0  0  0  0  0  0  0
   -0.8675    0.4975    0.0000 C   0  0  0  0  0  0  0  0  0  0  0  0
   -1.7328   -0.0038    0.0000 C   0  0  0  0  0  0  0  0  0  0  0  0
    0.0000    0.0000    0.0000 C   0  0  0  0  0  0  0  0  0  0  0  0
    6.9395   -3.0165    0.0000 C   0  0  0  0  0  0  0  0  0  0  0  0
    6.9292   -4.0216    0.0000 C   0  0  0  0  0  0  0  0  0  0  0  0
    7.7915   -4.5280    0.0000 O   0  0  0  0  0  0  0  0  0  0  0  0
    8.6612   -4.0343    0.0000 C   0  0  0  0  0  0  0  0  0  0  0  0
    9.5235   -4.5407    0.0000 C   0  0  0  0  0  0  0  0  0  0  0  0
    6.0564   -4.5204    0.0000 C   0  0  0  0  0  0  0  0  0  0  0  0
    6.0506   -5.5204    0.0000 C   0  0  0  0  0  0  0  0  0  0  0  0
    5.1823   -6.0166    0.0000 C   0  0  0  0  0  0  0  0  0  0  0  0
    5.1721   -7.0165    0.0000 C   0  0  0  0  0  0  0  0  0  0  0  0
    6.0390   -7.5255    0.0000 C   0  0  0  0  0  0  0  0  0  0  0  0
    6.0287   -8.5254    0.0000 F   0  0  0  0  0  0  0  0  0  0  0  0
    6.9160   -7.0344    0.0000 C   0  0  0  0  0  0  0  0  0  0  0  0
    6.9174   -6.0293    0.0000 C   0  0  0  0  0  0  0  0  0  0  0  0
  1  2  1  0
  2  3  1  0
  3  4  1  0
  4 29  2  0
  4  5  1  0
  5  6  2  0
  6  7  1  0
  7  8  1  0
  8 13  1  0
  8  9  1  0
  9 10  1  0
 10 11  1  0
 11 12  1  0
 12 13  1  0
 11 14  1  0
 14 15  1  0
 15 16  2  0
 15 17  1  0
 17 23  1  0
 17 18  2  0
 18 19  1  0
 19 20  2  0
 20 21  1  0
 21 22  1  0
 21 23  2  0
  6 24  1  0
 24 25  2  0
 25 26  1  0
 26 27  1  0
 27 28  1  0
 25 29  1  0
 29 30  1  0
 30 36  1  0
 30 31  2  0
 31 32  1  0
 32 33  2  0
 33 34  1  0
 33 35  1  0
 35 36  2  0
M  END
>  <SMILES>  (559) 
CCOc1cc(CN2CCC(NC(=O)c3cncc(C)c3)CC2)cc(OCC)c1-c1ccc(F)cc1

>  <CollectionName>  (559) 
chembl

>  <LOG PLASMA PROTEIN BINDING (RAT) (% unbound)>  (559) 
0.0755469613925

>  <Internal ID>  (559) 


>  <Source>  (559) 
AstraZeneca

$$$$
CHEMBL2111112
     RDKit          2D

 25 27  0  0  1  0  0  0  0  0999 V2000
    8.3054    4.0354    0.0000 C   0  0  0  0  0  0  0  0  0  0  0  0
    7.4415    4.5392    0.0000 O   0  0  0  0  0  0  0  0  0  0  0  0
    6.5733    4.0430    0.0000 C   0  0  0  0  0  0  0  0  0  0  0  0
    6.5675    3.0430    0.0000 C   0  0  0  0  0  0  0  0  0  0  0  0
    5.7015    2.5430    0.0000 C   0  0  0  0  0  0  0  0  0  0  0  0
    4.8324    3.0481    0.0000 C   0  0  0  0  0  0  0  0  0  0  0  0
    3.9664    2.5481    0.0000 C   0  0  0  0  0  0  0  0  0  0  0  0
    3.1003    3.0480    0.0000 C   0  0  0  0  0  0  0  0  0  0  0  0
    2.2343    2.5480    0.0000 O   0  0  0  0  0  0  0  0  0  0  0  0
    1.3683    3.0480    0.0000 C   0  0  0  0  0  0  0  0  0  0  0  0
    1.3712    4.0531    0.0000 C   0  0  0  0  0  0  0  0  0  0  0  0
    0.4963    4.5480    0.0000 C   0  0  0  0  0  0  0  0  0  0  0  0
   -0.3727    4.0428    0.0000 C   0  0  0  0  0  0  0  0  0  0  0  0
   -0.3668    3.0427    0.0000 C   0  0  0  0  0  0  0  0  0  0  0  0
    0.4993    2.5428    0.0000 C   0  0  0  0  0  0  0  0  0  0  0  0
    0.5008    1.5428    0.0000 N   0  0  0  0  0  0  0  0  0  0  0  0
   -0.3065    0.9519    0.0000 C   0  0  0  0  0  0  0  0  0  0  0  0
    0.0000    0.0000    0.0000 C   0  0  0  0  0  0  0  0  0  0  0  0
    1.0015   -0.0000    0.0000 C   0  0  0  0  0  0  0  0  0  0  0  0
    1.5883   -0.8097    0.0000 O   0  0  0  0  0  0  0  0  0  0  0  0
    1.3133    0.9519    0.0000 C   0  0  0  0  0  0  0  0  0  0  0  0
    4.8294    4.0532    0.0000 C   0  0  0  0  0  0  0  0  0  0  0  0
    5.7043    4.5481    0.0000 C   0  0  0  0  0  0  0  0  0  0  0  0
    5.7102    5.5481    0.0000 O   0  0  0  0  0  0  0  0  0  0  0  0
    6.5791    6.0430    0.0000 C   0  0  0  0  0  0  0  0  0  0  0  0
  1  2  1  0
  2  3  1  0
  3 23  2  0
  3  4  1  0
  4  5  2  0
  5  6  1  0
  6  7  1  0
  7  8  1  0
  8  9  1  0
 10  9  1  1
 10 15  1  0
 10 11  1  0
 11 12  1  0
 12 13  1  0
 13 14  1  0
 14 15  1  0
 15 16  1  6
 16 21  1  0
 16 17  1  0
 17 18  1  0
 18 19  1  0
 19 20  1  6
 19 21  1  0
  6 22  2  0
 22 23  1  0
 23 24  1  0
 24 25  1  0
M  END
>  <SMILES>  (560) 
COc1ccc(CCO[C@@H]2CCCC[C@H]2N2CC[C@@H](O)C2)cc1OC

>  <CollectionName>  (560) 
chembl

>  <LOG PLASMA PROTEIN BINDING (RAT) (% unbound)>  (560) 
1.8899736384

>  <Internal ID>  (560) 


>  <Source>  (560) 
AstraZeneca

$$$$
CHEMBL42
     RDKit          2D

 23 26  0  0  0  0  0  0  0  0999 V2000
    0.5820    4.8028    0.0000 C   0  0  0  0  0  0  0  0  0  0  0  0
    1.0177    3.9027    0.0000 N   0  0  0  0  0  0  0  0  0  0  0  0
    2.0152    3.8328    0.0000 C   0  0  0  0  0  0  0  0  0  0  0  0
    2.4532    2.9280    0.0000 C   0  0  0  0  0  0  0  0  0  0  0  0
    1.8935    2.0931    0.0000 N   0  0  0  0  0  0  0  0  0  0  0  0
    0.8915    2.1721    0.0000 C   0  0  0  0  0  0  0  0  0  0  0  0
    0.4536    3.0769    0.0000 C   0  0  0  0  0  0  0  0  0  0  0  0
    2.3292    1.1930    0.0000 C   0  0  0  0  0  0  0  0  0  0  0  0
    3.3333    1.1944    0.0000 N   0  0  0  0  0  0  0  0  0  0  0  0
    3.9620    0.4062    0.0000 C   0  0  0  0  0  0  0  0  0  0  0  0
    4.9146    0.7195    0.0000 C   0  0  0  0  0  0  0  0  0  0  0  0
    5.6612    0.0428    0.0000 C   0  0  0  0  0  0  0  0  0  0  0  0
    6.6129    0.3497    0.0000 Cl  0  0  0  0  0  0  0  0  0  0  0  0
    5.4510   -0.9405    0.0000 C   0  0  0  0  0  0  0  0  0  0  0  0
    4.4941   -1.2472    0.0000 C   0  0  0  0  0  0  0  0  0  0  0  0
    3.7517   -0.5772    0.0000 C   0  0  0  0  0  0  0  0  0  0  0  0
    2.8446   -1.0154    0.0000 N   0  0  0  0  0  0  0  0  0  0  0  0
    1.9312   -0.5840    0.0000 C   0  0  0  0  0  0  0  0  0  0  0  0
    1.2003   -1.2778    0.0000 C   0  0  0  0  0  0  0  0  0  0  0  0
    0.2313   -0.9837    0.0000 C   0  0  0  0  0  0  0  0  0  0  0  0
    0.0000    0.0000    0.0000 C   0  0  0  0  0  0  0  0  0  0  0  0
    0.7377    0.6898    0.0000 C   0  0  0  0  0  0  0  0  0  0  0  0
    1.6999    0.3997    0.0000 C   0  0  0  0  0  0  0  0  0  0  0  0
  1  2  1  0
  2  7  1  0
  2  3  1  0
  3  4  1  0
  4  5  1  0
  5  6  1  0
  6  7  1  0
  5  8  1  0
  8 23  1  0
  8  9  2  0
  9 10  1  0
 10 16  2  0
 10 11  1  0
 11 12  2  0
 12 13  1  0
 12 14  1  0
 14 15  2  0
 15 16  1  0
 16 17  1  0
 17 18  1  0
 18 23  2  0
 18 19  1  0
 19 20  2  0
 20 21  1  0
 21 22  2  0
 22 23  1  0
M  END
>  <SMILES>  (561) 
CN1CCN(C2=Nc3cc(Cl)ccc3Nc3ccccc32)CC1

>  <CollectionName>  (561) 
chembl

>  <LOG PLASMA PROTEIN BINDING (RAT) (% unbound)>  (561) 
0.810904280669

>  <Internal ID>  (561) 


>  <Source>  (561) 
AstraZeneca

$$$$
CHEMBL898
     RDKit          2D

 18 19  0  0  0  0  0  0  0  0999 V2000
    2.6054    2.5026    0.0000 O   0  0  0  0  0  0  0  0  0  0  0  0
    2.6025    1.5026    0.0000 C   0  0  0  0  0  0  0  0  0  0  0  0
    3.4670    1.0001    0.0000 O   0  0  0  0  0  0  0  0  0  0  0  0
    1.7350    1.0052    0.0000 C   0  0  0  0  0  0  0  0  0  0  0  0
    0.8675    1.5129    0.0000 C   0  0  0  0  0  0  0  0  0  0  0  0
    0.0000    1.0052    0.0000 C   0  0  0  0  0  0  0  0  0  0  0  0
    0.0000    0.0000    0.0000 C   0  0  0  0  0  0  0  0  0  0  0  0
    0.8675   -0.4975    0.0000 C   0  0  0  0  0  0  0  0  0  0  0  0
    1.7350   -0.0000    0.0000 C   0  0  0  0  0  0  0  0  0  0  0  0
    2.6003   -0.5013    0.0000 O   0  0  0  0  0  0  0  0  0  0  0  0
   -0.8675    1.5026    0.0000 C   0  0  0  0  0  0  0  0  0  0  0  0
   -1.7328    1.0013    0.0000 C   0  0  0  0  0  0  0  0  0  0  0  0
   -2.6025    1.4950    0.0000 C   0  0  0  0  0  0  0  0  0  0  0  0
   -2.6069    2.5002    0.0000 C   0  0  0  0  0  0  0  0  0  0  0  0
   -3.4766    2.9938    0.0000 F   0  0  0  0  0  0  0  0  0  0  0  0
   -1.7416    3.0117    0.0000 C   0  0  0  0  0  0  0  0  0  0  0  0
   -0.8719    2.5078    0.0000 C   0  0  0  0  0  0  0  0  0  0  0  0
   -0.0066    3.0091    0.0000 F   0  0  0  0  0  0  0  0  0  0  0  0
  1  2  1  0
  2  3  2  0
  2  4  1  0
  4  9  2  0
  4  5  1  0
  5  6  2  0
  6  7  1  0
  7  8  2  0
  8  9  1  0
  9 10  1  0
  6 11  1  0
 11 17  1  0
 11 12  2  0
 12 13  1  0
 13 14  2  0
 14 15  1  0
 14 16  1  0
 16 17  2  0
 17 18  1  0
M  END
>  <SMILES>  (562) 
O=C(O)c1cc(-c2ccc(F)cc2F)ccc1O

>  <CollectionName>  (562) 
chembl

>  <LOG PLASMA PROTEIN BINDING (RAT) (% unbound)>  (562) 
-0.744727494897

>  <Internal ID>  (562) 


>  <Source>  (562) 
AstraZeneca

$$$$
CHEMBL1201335
     RDKit          2D

 23 25  0  0  1  0  0  0  0  0999 V2000
   -0.1700    2.2845    0.0000 C   0  0  0  0  0  0  0  0  0  0  0  0
    0.5008    1.5428    0.0000 N   0  0  0  0  0  0  0  0  0  0  0  0
    1.1693    2.2865    0.0000 C   0  0  0  0  0  0  0  0  0  0  0  0
   -0.3065    0.9519    0.0000 C   0  0  0  0  0  0  0  0  0  0  0  0
    0.0000    0.0000    0.0000 C   0  0  0  0  0  0  0  0  0  0  0  0
    1.0015   -0.0000    0.0000 C   0  0  0  0  0  0  0  0  0  0  0  0
    1.3133    0.9519    0.0000 C   0  0  0  0  0  0  0  0  0  0  0  0
    1.5883   -0.8097    0.0000 O   0  0  0  0  0  0  0  0  0  0  0  0
    2.5830   -0.7064    0.0000 C   0  0  0  0  0  0  0  0  0  0  0  0
    2.9908    0.2067    0.0000 O   0  0  0  0  0  0  0  0  0  0  0  0
    3.1698   -1.5161    0.0000 C   0  0  0  0  0  0  0  0  0  0  0  0
    3.9795   -0.9293    0.0000 O   0  0  0  0  0  0  0  0  0  0  0  0
    2.3601   -2.1029    0.0000 C   0  0  0  0  0  0  0  0  0  0  0  0
    2.3579   -3.1045    0.0000 C   0  0  0  0  0  0  0  0  0  0  0  0
    1.4056   -3.4141    0.0000 C   0  0  0  0  0  0  0  0  0  0  0  0
    0.8198   -2.6036    0.0000 C   0  0  0  0  0  0  0  0  0  0  0  0
    1.4049   -1.7923    0.0000 C   0  0  0  0  0  0  0  0  0  0  0  0
    3.7566   -2.3258    0.0000 C   0  0  0  0  0  0  0  0  0  0  0  0
    4.7561   -2.2190    0.0000 C   0  0  0  0  0  0  0  0  0  0  0  0
    5.3430   -3.0287    0.0000 C   0  0  0  0  0  0  0  0  0  0  0  0
    4.9405   -3.9441    0.0000 C   0  0  0  0  0  0  0  0  0  0  0  0
    3.9410   -4.0510    0.0000 C   0  0  0  0  0  0  0  0  0  0  0  0
    3.3440   -3.2424    0.0000 C   0  0  0  0  0  0  0  0  0  0  0  0
  1  2  1  0
  2  7  1  0
  2  3  1  0
  2  4  1  0
  4  5  1  0
  5  6  1  0
  6  7  1  0
  6  8  1  0
  8  9  1  0
  9 10  2  0
  9 11  1  0
 11 12  1  0
 11 13  1  0
 13 17  1  0
 13 14  1  0
 14 15  1  0
 15 16  1  0
 16 17  1  0
 11 18  1  0
 18 23  1  0
 18 19  2  0
 19 20  1  0
 20 21  2  0
 21 22  1  0
 22 23  2  0
M  CHG  1   2   1
M  END
>  <SMILES>  (563) 
C[N+]1(C)CCC(OC(=O)C(O)(c2ccccc2)C2CCCC2)C1

>  <CollectionName>  (563) 
chembl

>  <LOG PLASMA PROTEIN BINDING (RAT) (% unbound)>  (563) 
1.83333838894

>  <Internal ID>  (563) 


>  <Source>  (563) 
AstraZeneca

$$$$
CHEMBL2048863
     RDKit          2D

 21 23  0  0  1  0  0  0  0  0999 V2000
    1.5883   -0.8097    0.0000 N   0  0  0  0  0  0  0  0  0  0  0  0
    1.0015   -0.0000    0.0000 C   0  0  0  0  0  0  0  0  0  0  0  0
    0.0000    0.0000    0.0000 C   0  0  0  0  0  0  0  0  0  0  0  0
   -0.3065    0.9519    0.0000 C   0  0  0  0  0  0  0  0  0  0  0  0
    0.5008    1.5428    0.0000 N   0  0  0  0  0  0  0  0  0  0  0  0
    1.3133    0.9519    0.0000 C   0  0  0  0  0  0  0  0  0  0  0  0
    0.4993    2.5428    0.0000 C   0  0  0  0  0  0  0  0  0  0  0  0
   -0.3690    3.0492    0.0000 C   0  0  0  0  0  0  0  0  0  0  0  0
   -1.2357    2.5504    0.0000 Cl  0  0  0  0  0  0  0  0  0  0  0  0
   -0.3705    4.0544    0.0000 C   0  0  0  0  0  0  0  0  0  0  0  0
    0.4962    4.5532    0.0000 C   0  0  0  0  0  0  0  0  0  0  0  0
    1.3645    4.0570    0.0000 C   0  0  0  0  0  0  0  0  0  0  0  0
    1.3660    3.0518    0.0000 C   0  0  0  0  0  0  0  0  0  0  0  0
    2.2343    2.5557    0.0000 C   0  0  0  0  0  0  0  0  0  0  0  0
    3.0980    3.0596    0.0000 C   0  0  0  0  0  0  0  0  0  0  0  0
    3.1951    4.0553    0.0000 S   0  0  0  0  0  0  0  0  0  0  0  0
    4.1770    4.2677    0.0000 C   0  0  0  0  0  0  0  0  0  0  0  0
    4.5814    5.1823    0.0000 O   0  0  0  0  0  0  0  0  0  0  0  0
    4.6793    3.4011    0.0000 N   0  0  0  0  0  0  0  0  0  0  0  0
    4.0122    2.6541    0.0000 C   0  0  0  0  0  0  0  0  0  0  0  0
    4.2227    1.6765    0.0000 O   0  0  0  0  0  0  0  0  0  0  0  0
  2  1  1  1
  2  6  1  0
  2  3  1  0
  3  4  1  0
  4  5  1  0
  5  6  1  0
  5  7  1  0
  7 13  1  0
  7  8  2  0
  8  9  1  0
  8 10  1  0
 10 11  2  0
 11 12  1  0
 12 13  2  0
 13 14  1  0
 14 15  2  0
 15 20  1  0
 15 16  1  0
 16 17  1  0
 17 18  2  0
 17 19  1  0
 19 20  1  0
 20 21  2  0
M  END
>  <SMILES>  (564) 
N[C@H]1CCN(c2c(Cl)cccc2/C=C2\SC(=O)NC2=O)C1

>  <CollectionName>  (564) 
chembl

>  <LOG PLASMA PROTEIN BINDING (RAT) (% unbound)>  (564) 
0.669316880566

>  <Internal ID>  (564) 


>  <Source>  (564) 
AstraZeneca

$$$$
CHEMBL2058631
     RDKit          2D

 15 16  0  0  1  0  0  0  0  0999 V2000
   -1.2577    1.2605    0.0000 C   0  0  0  0  0  0  0  0  0  0  0  0
   -0.3065    0.9519    0.0000 C   0  0  0  0  0  0  0  0  0  0  0  0
    0.0000    0.0000    0.0000 C   0  0  0  0  0  0  0  0  0  0  0  0
    1.0015   -0.0000    0.0000 N   0  0  0  0  0  0  0  0  0  0  0  0
    1.3133    0.9519    0.0000 C   0  0  0  0  0  0  0  0  0  0  0  0
    0.5008    1.5428    0.0000 N   0  0  0  0  0  0  0  0  0  0  0  0
    2.2648    1.2596    0.0000 N   0  0  0  0  0  0  0  0  0  0  0  0
    3.0070    0.5894    0.0000 C   0  0  0  0  0  0  0  0  0  0  0  0
    2.8024   -0.3947    0.0000 C   0  0  0  0  0  0  0  0  0  0  0  0
    1.8518   -0.7052    0.0000 Cl  0  0  0  0  0  0  0  0  0  0  0  0
    3.5485   -1.0684    0.0000 C   0  0  0  0  0  0  0  0  0  0  0  0
    4.4991   -0.7580    0.0000 C   0  0  0  0  0  0  0  0  0  0  0  0
    4.7112    0.2193    0.0000 C   0  0  0  0  0  0  0  0  0  0  0  0
    3.9652    0.8930    0.0000 C   0  0  0  0  0  0  0  0  0  0  0  0
    4.1774    1.8702    0.0000 Cl  0  0  0  0  0  0  0  0  0  0  0  0
  1  2  1  0
  2  6  1  0
  2  3  1  0
  3  4  1  0
  4  5  1  0
  5  6  2  0
  5  7  1  0
  7  8  1  0
  8 14  1  0
  8  9  2  0
  9 10  1  0
  9 11  1  0
 11 12  2  0
 12 13  1  0
 13 14  2  0
 14 15  1  0
M  END
>  <SMILES>  (565) 
CC1CNC(Nc2c(Cl)cccc2Cl)=N1

>  <CollectionName>  (565) 
chembl

>  <LOG PLASMA PROTEIN BINDING (RAT) (% unbound)>  (565) 
1.8062478272

>  <Internal ID>  (565) 


>  <Source>  (565) 
AstraZeneca

$$$$
CHEMBL2069413
     RDKit          2D

 36 39  0  0  1  0  0  0  0  0999 V2000
    1.7379    3.0001    0.0000 O   0  0  0  0  0  0  0  0  0  0  0  0
    1.7350    2.0001    0.0000 C   0  0  0  0  0  0  0  0  0  0  0  0
    0.8675    1.5027    0.0000 C   0  0  0  0  0  0  0  0  0  0  0  0
    0.8675    0.4975    0.0000 C   0  0  0  0  0  0  0  0  0  0  0  0
    0.0000    0.0000    0.0000 C   0  0  0  0  0  0  0  0  0  0  0  0
   -0.8675    0.4975    0.0000 C   0  0  0  0  0  0  0  0  0  0  0  0
   -0.8675    1.5027    0.0000 C   0  0  0  0  0  0  0  0  0  0  0  0
    0.0000    2.0104    0.0000 N   0  0  0  0  0  0  0  0  0  0  0  0
   -1.7328   -0.0038    0.0000 C   0  0  0  0  0  0  0  0  0  0  0  0
   -1.7279   -1.0044    0.0000 C   0  0  0  0  0  0  0  0  0  0  0  0
   -2.5979   -1.5089    0.0000 C   0  0  0  0  0  0  0  0  0  0  0  0
   -3.4729   -1.0130    0.0000 C   0  0  0  0  0  0  0  0  0  0  0  0
   -3.4696   -0.0060    0.0000 C   0  0  0  0  0  0  0  0  0  0  0  0
   -4.3420    0.4912    0.0000 O   0  0  0  0  0  0  0  0  0  0  0  0
   -4.3405    1.5003    0.0000 C   0  0  0  0  0  0  0  0  0  0  0  0
   -3.4688    2.0044    0.0000 C   0  0  0  0  0  0  0  0  0  0  0  0
   -2.5984    1.4994    0.0000 C   0  0  0  0  0  0  0  0  0  0  0  0
   -2.5979    0.4980    0.0000 C   0  0  0  0  0  0  0  0  0  0  0  0
   -3.4681    3.0044    0.0000 N   0  0  0  0  0  0  0  0  0  0  0  0
   -4.3338    3.5050    0.0000 C   0  0  0  0  0  0  0  0  0  0  0  0
   -5.2001    3.0056    0.0000 O   0  0  0  0  0  0  0  0  0  0  0  0
   -4.3331    4.5050    0.0000 C   0  0  0  0  0  0  0  0  0  0  0  0
   -3.4674    5.0057    0.0000 C   0  0  0  0  0  0  0  0  0  0  0  0
   -3.4623    6.0057    0.0000 C   0  0  0  0  0  0  0  0  0  0  0  0
   -4.3318    6.5102    0.0000 C   0  0  0  0  0  0  0  0  0  0  0  0
   -4.3267    7.5102    0.0000 O   0  0  0  0  0  0  0  0  0  0  0  0
   -5.1901    8.0146    0.0000 C   0  0  0  0  0  0  0  0  0  0  0  0
   -5.1850    9.0146    0.0000 C   0  0  0  0  0  0  0  0  0  0  0  0
   -6.0485    9.5190    0.0000 O   0  0  0  0  0  0  0  0  0  0  0  0
   -6.0434   10.5190    0.0000 C   0  0  0  0  0  0  0  0  0  0  0  0
   -6.9068   11.0234    0.0000 C   0  0  0  0  0  0  0  0  0  0  0  0
   -7.4113   10.1599    0.0000 F   0  0  0  0  0  0  0  0  0  0  0  0
   -6.4024   11.8868    0.0000 F   0  0  0  0  0  0  0  0  0  0  0  0
   -7.7703   11.5278    0.0000 F   0  0  0  0  0  0  0  0  0  0  0  0
   -5.2063    6.0146    0.0000 N   0  0  0  0  0  0  0  0  0  0  0  0
   -5.2025    5.0095    0.0000 C   0  0  0  0  0  0  0  0  0  0  0  0
  1  2  1  0
  2  3  1  0
  3  8  2  0
  3  4  1  0
  4  5  2  0
  5  6  1  0
  6  7  2  0
  7  8  1  0
  6  9  1  0
  9 18  1  0
  9 10  2  0
 10 11  1  0
 11 12  2  0
 12 13  1  0
 13 18  2  0
 13 14  1  0
 14 15  1  0
 15 16  1  0
 16 17  1  0
 17 18  1  0
 16 19  1  1
 19 20  1  0
 20 21  2  0
 20 22  1  0
 22 36  1  0
 22 23  2  0
 23 24  1  0
 24 25  2  0
 25 26  1  0
 26 27  1  0
 27 28  1  0
 28 29  1  0
 29 30  1  0
 30 31  1  0
 31 32  1  0
 31 33  1  0
 31 34  1  0
 25 35  1  0
 35 36  2  0
M  END
>  <SMILES>  (566) 
O=C(N[C@@H]1COc2cccc(-c3ccc(CO)nc3)c2C1)c1ccc(OCCOCC(F)(F)F)nc1

>  <CollectionName>  (566) 
chembl

>  <LOG PLASMA PROTEIN BINDING (RAT) (% unbound)>  (566) 
0.949390006645

>  <Internal ID>  (566) 


>  <Source>  (566) 
AstraZeneca

$$$$
CHEMBL2086675
     RDKit          2D

 27 29  0  0  0  0  0  0  0  0999 V2000
    1.7035  -11.0193    0.0000 C   0  0  0  0  0  0  0  0  0  0  0  0
    1.7079  -10.0193    0.0000 C   0  0  0  0  0  0  0  0  0  0  0  0
    0.7079  -10.0149    0.0000 C   0  0  0  0  0  0  0  0  0  0  0  0
    2.7079  -10.0237    0.0000 C   0  0  0  0  0  0  0  0  0  0  0  0
    1.7123   -9.0193    0.0000 O   0  0  0  0  0  0  0  0  0  0  0  0
    0.8485   -8.5155    0.0000 C   0  0  0  0  0  0  0  0  0  0  0  0
   -0.0197   -9.0117    0.0000 O   0  0  0  0  0  0  0  0  0  0  0  0
    0.8529   -7.5155    0.0000 N   0  0  0  0  0  0  0  0  0  0  0  0
    1.7226   -7.0117    0.0000 C   0  0  0  0  0  0  0  0  0  0  0  0
    1.7270   -6.0065    0.0000 C   0  0  0  0  0  0  0  0  0  0  0  0
    0.8617   -5.5051    0.0000 N   0  0  0  0  0  0  0  0  0  0  0  0
   -0.0079   -5.9988    0.0000 C   0  0  0  0  0  0  0  0  0  0  0  0
   -0.0124   -7.0040    0.0000 C   0  0  0  0  0  0  0  0  0  0  0  0
    0.8661   -4.5052    0.0000 C   0  0  0  0  0  0  0  0  0  0  0  0
    1.7403   -4.0090    0.0000 N   0  0  0  0  0  0  0  0  0  0  0  0
    1.7358   -3.0039    0.0000 C   0  0  0  0  0  0  0  0  0  0  0  0
    0.8660   -2.5000    0.0000 C   0  0  0  0  0  0  0  0  0  0  0  0
    0.8660   -1.5000    0.0000 O   0  0  0  0  0  0  0  0  0  0  0  0
    0.0000   -1.0000    0.0000 C   0  0  0  0  0  0  0  0  0  0  0  0
    0.0000    0.0000    0.0000 C   0  0  0  0  0  0  0  0  0  0  0  0
   -0.8675    0.4975    0.0000 C   0  0  0  0  0  0  0  0  0  0  0  0
   -0.8675    1.5027    0.0000 C   0  0  0  0  0  0  0  0  0  0  0  0
   -0.0000    2.0104    0.0000 N   0  0  0  0  0  0  0  0  0  0  0  0
    0.8675    1.5027    0.0000 C   0  0  0  0  0  0  0  0  0  0  0  0
    0.8675    0.4975    0.0000 C   0  0  0  0  0  0  0  0  0  0  0  0
    0.0007   -3.0013    0.0000 C   0  0  0  0  0  0  0  0  0  0  0  0
   -0.0037   -4.0013    0.0000 N   0  0  0  0  0  0  0  0  0  0  0  0
  1  2  1  0
  2  3  1  0
  2  4  1  0
  2  5  1  0
  5  6  1  0
  6  7  2  0
  6  8  1  0
  8 13  1  0
  8  9  1  0
  9 10  1  0
 10 11  1  0
 11 12  1  0
 12 13  1  0
 11 14  1  0
 14 27  1  0
 14 15  2  0
 15 16  1  0
 16 17  2  0
 17 18  1  0
 18 19  1  0
 19 20  1  0
 20 25  1  0
 20 21  2  0
 21 22  1  0
 22 23  2  0
 23 24  1  0
 24 25  2  0
 17 26  1  0
 26 27  2  0
M  END
>  <SMILES>  (567) 
CC(C)(C)OC(=O)N1CCN(c2ncc(OCc3ccncc3)cn2)CC1

>  <CollectionName>  (567) 
chembl

>  <LOG PLASMA PROTEIN BINDING (RAT) (% unbound)>  (567) 
0.553883026644

>  <Internal ID>  (567) 


>  <Source>  (567) 
AstraZeneca

$$$$
CHEMBL289330
     RDKit          2D

 22 23  0  0  1  0  0  0  0  0999 V2000
    1.3645    3.0441    0.0000 C   0  0  0  0  0  0  0  0  0  0  0  0
    0.4993    2.5428    0.0000 C   0  0  0  0  0  0  0  0  0  0  0  0
    0.5008    1.5428    0.0000 N   0  0  0  0  0  0  0  0  0  0  0  0
   -0.3065    0.9519    0.0000 C   0  0  0  0  0  0  0  0  0  0  0  0
    0.0000    0.0000    0.0000 C   0  0  0  0  0  0  0  0  0  0  0  0
    1.0015    0.0000    0.0000 C   0  0  0  0  0  0  0  0  0  0  0  0
    1.3133    0.9519    0.0000 C   0  0  0  0  0  0  0  0  0  0  0  0
    2.2648    1.2596    0.0000 C   0  0  0  0  0  0  0  0  0  0  0  0
    2.4741    2.2374    0.0000 N   0  0  0  0  0  0  0  0  0  0  0  0
    3.4256    2.5451    0.0000 C   0  0  0  0  0  0  0  0  0  0  0  0
    4.1678    1.8749    0.0000 O   0  0  0  0  0  0  0  0  0  0  0  0
    3.6349    3.5229    0.0000 C   0  0  0  0  0  0  0  0  0  0  0  0
    2.8908    4.1910    0.0000 C   0  0  0  0  0  0  0  0  0  0  0  0
    3.1011    5.1739    0.0000 C   0  0  0  0  0  0  0  0  0  0  0  0
    2.3570    5.8419    0.0000 Br  0  0  0  0  0  0  0  0  0  0  0  0
    4.0557    5.4888    0.0000 C   0  0  0  0  0  0  0  0  0  0  0  0
    4.7977    4.8108    0.0000 C   0  0  0  0  0  0  0  0  0  0  0  0
    5.7501    5.1156    0.0000 O   0  0  0  0  0  0  0  0  0  0  0  0
    6.4903    4.4432    0.0000 C   0  0  0  0  0  0  0  0  0  0  0  0
    4.5873    3.8278    0.0000 C   0  0  0  0  0  0  0  0  0  0  0  0
    5.3285    3.1566    0.0000 O   0  0  0  0  0  0  0  0  0  0  0  0
    5.1178    2.1790    0.0000 C   0  0  0  0  0  0  0  0  0  0  0  0
  1  2  1  0
  2  3  1  0
  3  7  1  0
  3  4  1  0
  4  5  1  0
  5  6  1  0
  6  7  1  0
  7  8  1  6
  8  9  1  0
  9 10  1  0
 10 11  2  0
 10 12  1  0
 12 20  1  0
 12 13  2  0
 13 14  1  0
 14 15  1  0
 14 16  2  0
 16 17  1  0
 17 18  1  0
 18 19  1  0
 17 20  2  0
 20 21  1  0
 21 22  1  0
M  END
>  <SMILES>  (568) 
CCN1CCC[C@H]1CNC(=O)c1cc(Br)cc(OC)c1OC

>  <CollectionName>  (568) 
chembl

>  <LOG PLASMA PROTEIN BINDING (RAT) (% unbound)>  (568) 
1.84571801797

>  <Internal ID>  (568) 


>  <Source>  (568) 
AstraZeneca

$$$$
CHEMBL2029721
     RDKit          2D

 31 35  0  0  1  0  0  0  0  0999 V2000
   -1.6474   -0.5317    0.0000 C   0  0  0  0  0  0  0  0  0  0  0  0
   -1.3438   -1.4845    0.0000 N   0  0  0  0  0  0  0  0  0  0  0  0
   -2.0172   -2.2238    0.0000 C   0  0  0  0  0  0  0  0  0  0  0  0
   -2.9941   -2.0103    0.0000 C   0  0  0  0  0  0  0  0  0  0  0  0
   -3.2977   -1.0575    0.0000 O   0  0  0  0  0  0  0  0  0  0  0  0
   -3.6675   -2.7496    0.0000 N   0  0  0  0  0  0  0  0  0  0  0  0
   -4.6444   -2.5361    0.0000 C   0  0  0  0  0  0  0  0  0  0  0  0
   -5.3859   -1.8623    0.0000 C   0  0  0  0  0  0  0  0  0  0  0  0
   -5.5994   -2.8393    0.0000 C   0  0  0  0  0  0  0  0  0  0  0  0
   -0.3669   -1.6980    0.0000 C   0  0  0  0  0  0  0  0  0  0  0  0
   -0.0633   -2.6508    0.0000 O   0  0  0  0  0  0  0  0  0  0  0  0
    0.3065   -0.9587    0.0000 C   0  0  0  0  0  0  0  0  0  0  0  0
    0.0000    0.0000    0.0000 C   0  0  0  0  0  0  0  0  0  0  0  0
    0.6786    0.7423    0.0000 C   0  0  0  0  0  0  0  0  0  0  0  0
    1.6566    0.5296    0.0000 C   0  0  0  0  0  0  0  0  0  0  0  0
    1.9631   -0.4291    0.0000 C   0  0  0  0  0  0  0  0  0  0  0  0
    1.2916   -1.1750    0.0000 C   0  0  0  0  0  0  0  0  0  0  0  0
    2.9631   -0.4326    0.0000 C   0  0  0  0  0  0  0  0  0  0  0  0
    3.6310   -1.1862    0.0000 C   0  0  0  0  0  0  0  0  0  0  0  0
    4.6229   -0.9863    0.0000 C   0  0  0  0  0  0  0  0  0  0  0  0
    4.9434   -0.0258    0.0000 C   0  0  0  0  0  0  0  0  0  0  0  0
    4.2719    0.7349    0.0000 C   0  0  0  0  0  0  0  0  0  0  0  0
    3.2835    0.5280    0.0000 C   0  0  0  0  0  0  0  0  0  0  0  0
    2.4666    1.1220    0.0000 N   0  0  0  0  0  0  0  0  0  0  0  0
    2.4652    2.1220    0.0000 C   0  0  0  0  0  0  0  0  0  0  0  0
    5.2851   -1.7356    0.0000 C   0  0  0  0  0  0  0  0  0  0  0  0
    6.2646   -1.5339    0.0000 C   0  0  0  0  0  0  0  0  0  0  0  0
    6.9303   -2.2871    0.0000 C   0  0  0  0  0  0  0  0  0  0  0  0
    6.6165   -3.2420    0.0000 O   0  0  0  0  0  0  0  0  0  0  0  0
    5.6303   -3.4360    0.0000 C   0  0  0  0  0  0  0  0  0  0  0  0
    4.9646   -2.6829    0.0000 C   0  0  0  0  0  0  0  0  0  0  0  0
  1  2  1  0
  2  3  1  0
  3  4  1  0
  4  5  2  0
  4  6  1  0
  6  7  1  0
  7  9  1  0
  7  8  1  0
  8  9  1  0
  2 10  1  0
 10 11  2  0
 10 12  1  0
 12 17  1  0
 12 13  2  0
 13 14  1  0
 14 15  2  0
 15 24  1  0
 15 16  1  0
 16 17  2  0
 16 18  1  0
 18 23  2  0
 18 19  1  0
 19 20  1  0
 20 21  1  0
 21 22  1  0
 22 23  1  0
 23 24  1  0
 24 25  1  0
 20 26  1  0
 26 31  1  0
 26 27  1  0
 27 28  1  0
 28 29  1  0
 29 30  1  0
 30 31  1  0
M  END
>  <SMILES>  (569) 
CN(CC(=O)NC1CC1)C(=O)c1ccc2c(c1)c1c(n2C)CCC(C2CCOCC2)C1

>  <CollectionName>  (569) 
chembl

>  <LOG PLASMA PROTEIN BINDING (RAT) (% unbound)>  (569) 
0.34044411484

>  <Internal ID>  (569) 


>  <Source>  (569) 
AstraZeneca

$$$$
CHEMBL2029729
     RDKit          2D

 31 34  0  0  1  0  0  0  0  0999 V2000
   -1.1727   -7.7272    0.0000 C   0  0  0  0  0  0  0  0  0  0  0  0
   -1.4762   -6.7744    0.0000 N   0  0  0  0  0  0  0  0  0  0  0  0
   -0.8029   -6.0350    0.0000 C   0  0  0  0  0  0  0  0  0  0  0  0
    0.1741   -6.2485    0.0000 O   0  0  0  0  0  0  0  0  0  0  0  0
   -1.1064   -5.0822    0.0000 C   0  0  0  0  0  0  0  0  0  0  0  0
   -0.4331   -4.3429    0.0000 C   0  0  0  0  0  0  0  0  0  0  0  0
   -0.7367   -3.3901    0.0000 C   0  0  0  0  0  0  0  0  0  0  0  0
   -0.0633   -2.6508    0.0000 N   0  0  0  0  0  0  0  0  0  0  0  0
    0.9137   -2.8643    0.0000 C   0  0  0  0  0  0  0  0  0  0  0  0
   -0.3669   -1.6980    0.0000 C   0  0  0  0  0  0  0  0  0  0  0  0
   -1.3438   -1.4845    0.0000 O   0  0  0  0  0  0  0  0  0  0  0  0
    0.3065   -0.9587    0.0000 C   0  0  0  0  0  0  0  0  0  0  0  0
    0.0000    0.0000    0.0000 C   0  0  0  0  0  0  0  0  0  0  0  0
    0.6786    0.7423    0.0000 C   0  0  0  0  0  0  0  0  0  0  0  0
    1.6566    0.5296    0.0000 C   0  0  0  0  0  0  0  0  0  0  0  0
    1.9631   -0.4291    0.0000 C   0  0  0  0  0  0  0  0  0  0  0  0
    1.2916   -1.1750    0.0000 C   0  0  0  0  0  0  0  0  0  0  0  0
    2.9631   -0.4326    0.0000 C   0  0  0  0  0  0  0  0  0  0  0  0
    3.6310   -1.1862    0.0000 C   0  0  0  0  0  0  0  0  0  0  0  0
    4.6229   -0.9863    0.0000 C   0  0  0  0  0  0  0  0  0  0  0  0
    4.9434   -0.0258    0.0000 C   0  0  0  0  0  0  0  0  0  0  0  0
    4.2719    0.7349    0.0000 C   0  0  0  0  0  0  0  0  0  0  0  0
    3.2835    0.5280    0.0000 C   0  0  0  0  0  0  0  0  0  0  0  0
    2.4666    1.1220    0.0000 N   0  0  0  0  0  0  0  0  0  0  0  0
    2.4652    2.1220    0.0000 C   0  0  0  0  0  0  0  0  0  0  0  0
    5.2851   -1.7356    0.0000 C   0  0  0  0  0  0  0  0  0  0  0  0
    6.2646   -1.5339    0.0000 C   0  0  0  0  0  0  0  0  0  0  0  0
    6.9303   -2.2871    0.0000 C   0  0  0  0  0  0  0  0  0  0  0  0
    6.6165   -3.2420    0.0000 O   0  0  0  0  0  0  0  0  0  0  0  0
    5.6303   -3.4360    0.0000 C   0  0  0  0  0  0  0  0  0  0  0  0
    4.9646   -2.6829    0.0000 C   0  0  0  0  0  0  0  0  0  0  0  0
  1  2  1  0
  2  3  1  0
  3  4  2  0
  3  5  1  0
  5  6  1  0
  6  7  1  0
  7  8  1  0
  8  9  1  0
  8 10  1  0
 10 11  2  0
 10 12  1  0
 12 17  2  0
 12 13  1  0
 13 14  2  0
 14 15  1  0
 15 24  1  0
 15 16  2  0
 16 17  1  0
 16 18  1  0
 18 23  2  0
 18 19  1  0
 19 20  1  0
 20 21  1  0
 21 22  1  0
 22 23  1  0
 23 24  1  0
 24 25  1  0
 20 26  1  1
 26 31  1  0
 26 27  1  0
 27 28  1  0
 28 29  1  0
 29 30  1  0
 30 31  1  0
M  END
>  <SMILES>  (570) 
CNC(=O)CCCN(C)C(=O)c1ccc2c(c1)c1c(n2C)CC[C@@H](C2CCOCC2)C1

>  <CollectionName>  (570) 
chembl

>  <LOG PLASMA PROTEIN BINDING (RAT) (% unbound)>  (570) 
0.164352855784

>  <Internal ID>  (570) 


>  <Source>  (570) 
AstraZeneca

$$$$
CHEMBL841
     RDKit          2D

 34 37  0  0  0  0  0  0  0  0999 V2000
   -0.8660    5.5104    0.0000 C   0  0  0  0  0  0  0  0  0  0  0  0
   -0.0000    6.0104    0.0000 N   0  0  0  0  0  0  0  0  0  0  0  0
   -0.0000    7.0104    0.0000 C   0  0  0  0  0  0  0  0  0  0  0  0
    0.8660    5.5104    0.0000 C   0  0  0  0  0  0  0  0  0  0  0  0
    1.7321    6.0104    0.0000 O   0  0  0  0  0  0  0  0  0  0  0  0
    0.8660    4.5104    0.0000 C   0  0  0  0  0  0  0  0  0  0  0  0
    0.8660    3.5104    0.0000 C   0  0  0  0  0  0  0  0  0  0  0  0
   -0.0000    3.0104    0.0000 C   0  0  0  0  0  0  0  0  0  0  0  0
   -0.0000    2.0104    0.0000 N   0  0  0  0  0  0  0  0  0  0  0  0
   -0.8675    1.5027    0.0000 C   0  0  0  0  0  0  0  0  0  0  0  0
   -0.8675    0.4975    0.0000 C   0  0  0  0  0  0  0  0  0  0  0  0
    0.0000    0.0000    0.0000 C   0  0  0  0  0  0  0  0  0  0  0  0
   -0.6420   -0.7667    0.0000 O   0  0  0  0  0  0  0  0  0  0  0  0
    0.8675    0.4975    0.0000 C   0  0  0  0  0  0  0  0  0  0  0  0
    0.8675    1.5027    0.0000 C   0  0  0  0  0  0  0  0  0  0  0  0
    0.6420   -0.7667    0.0000 C   0  0  0  0  0  0  0  0  0  0  0  0
    0.3005   -1.7066    0.0000 C   0  0  0  0  0  0  0  0  0  0  0  0
    0.9392   -2.4760    0.0000 C   0  0  0  0  0  0  0  0  0  0  0  0
    1.9295   -2.3039    0.0000 C   0  0  0  0  0  0  0  0  0  0  0  0
    2.5682   -3.0734    0.0000 Cl  0  0  0  0  0  0  0  0  0  0  0  0
    2.2812   -1.3622    0.0000 C   0  0  0  0  0  0  0  0  0  0  0  0
    1.6324   -0.5945    0.0000 C   0  0  0  0  0  0  0  0  0  0  0  0
   -0.8840    4.5104    0.0000 C   0  0  0  0  0  0  0  0  0  0  0  0
   -1.3840    3.6384    0.0000 C   0  0  0  0  0  0  0  0  0  0  0  0
   -2.3840    3.6383    0.0000 C   0  0  0  0  0  0  0  0  0  0  0  0
   -2.8891    4.5015    0.0000 C   0  0  0  0  0  0  0  0  0  0  0  0
   -2.3891    5.3735    0.0000 C   0  0  0  0  0  0  0  0  0  0  0  0
   -1.3840    5.3824    0.0000 C   0  0  0  0  0  0  0  0  0  0  0  0
    2.6160    4.5104    0.0000 C   0  0  0  0  0  0  0  0  0  0  0  0
    3.1161    5.3824    0.0000 C   0  0  0  0  0  0  0  0  0  0  0  0
    4.1161    5.3825    0.0000 C   0  0  0  0  0  0  0  0  0  0  0  0
    4.6212    4.5193    0.0000 C   0  0  0  0  0  0  0  0  0  0  0  0
    4.1211    3.6473    0.0000 C   0  0  0  0  0  0  0  0  0  0  0  0
    3.1160    3.6384    0.0000 C   0  0  0  0  0  0  0  0  0  0  0  0
  1  2  1  0
  2  3  1  0
  2  4  1  0
  4  5  2  0
  4  6  1  0
  6  7  1  0
  7  8  1  0
  8  9  1  0
  9 15  1  0
  9 10  1  0
 10 11  1  0
 11 12  1  0
 12 13  1  0
 12 14  1  0
 14 15  1  0
 12 16  1  0
 16 22  1  0
 16 17  2  0
 17 18  1  0
 18 19  2  0
 19 20  1  0
 19 21  1  0
 21 22  2  0
  6 23  1  0
 23 28  1  0
 23 24  2  0
 24 25  1  0
 25 26  2  0
 26 27  1  0
 27 28  2  0
  6 29  1  0
 29 34  1  0
 29 30  2  0
 30 31  1  0
 31 32  2  0
 32 33  1  0
 33 34  2  0
M  END
>  <SMILES>  (571) 
CN(C)C(=O)C(CCN1CCC(O)(c2ccc(Cl)cc2)CC1)(c1ccccc1)c1ccccc1

>  <CollectionName>  (571) 
chembl

>  <LOG PLASMA PROTEIN BINDING (RAT) (% unbound)>  (571) 
0.735598899698

>  <Internal ID>  (571) 


>  <Source>  (571) 
AstraZeneca

$$$$
CHEMBL2011115
     RDKit          2D

 35 38  0  0  0  0  0  0  0  0999 V2000
    2.0919    0.0515    0.0000 C   0  0  0  0  0  0  0  0  0  0  0  0
    1.5920   -0.8145    0.0000 C   0  0  0  0  0  0  0  0  0  0  0  0
    2.0921   -1.6805    0.0000 C   0  0  0  0  0  0  0  0  0  0  0  0
    0.5920   -0.8146    0.0000 N   0  0  0  0  0  0  0  0  0  0  0  0
    0.0000    0.0000    0.0000 C   0  0  0  0  0  0  0  0  0  0  0  0
   -0.9578   -0.3110    0.0000 C   0  0  0  0  0  0  0  0  0  0  0  0
   -1.8258    0.1969    0.0000 C   0  0  0  0  0  0  0  0  0  0  0  0
   -1.8258    1.1969    0.0000 N   0  0  0  0  0  0  0  0  0  0  0  0
   -2.6918    1.6969    0.0000 C   0  0  0  0  0  0  0  0  0  0  0  0
   -2.6918    2.6969    0.0000 C   0  0  0  0  0  0  0  0  0  0  0  0
   -1.8265    3.1982    0.0000 C   0  0  0  0  0  0  0  0  0  0  0  0
   -1.8221    4.1982    0.0000 C   0  0  0  0  0  0  0  0  0  0  0  0
   -2.6919    4.7021    0.0000 C   0  0  0  0  0  0  0  0  0  0  0  0
   -2.6875    5.7020    0.0000 O   0  0  0  0  0  0  0  0  0  0  0  0
   -3.5514    6.2059    0.0000 C   0  0  0  0  0  0  0  0  0  0  0  0
   -4.0552    5.3420    0.0000 F   0  0  0  0  0  0  0  0  0  0  0  0
   -3.0476    7.0697    0.0000 F   0  0  0  0  0  0  0  0  0  0  0  0
   -4.4152    6.7097    0.0000 F   0  0  0  0  0  0  0  0  0  0  0  0
   -3.5661    4.2059    0.0000 C   0  0  0  0  0  0  0  0  0  0  0  0
   -3.5616    3.2008    0.0000 C   0  0  0  0  0  0  0  0  0  0  0  0
   -2.6938   -0.3110    0.0000 N   0  0  0  0  0  0  0  0  0  0  0  0
   -2.6938   -1.3168    0.0000 C   0  0  0  0  0  0  0  0  0  0  0  0
   -1.8258   -1.8147    0.0000 N   0  0  0  0  0  0  0  0  0  0  0  0
   -0.9578   -1.3181    0.0000 C   0  0  0  0  0  0  0  0  0  0  0  0
    0.0000   -1.6294    0.0000 C   0  0  0  0  0  0  0  0  0  0  0  0
    0.3090   -2.5805    0.0000 O   0  0  0  0  0  0  0  0  0  0  0  0
   -3.5591   -1.8180    0.0000 N   0  0  0  0  0  0  0  0  0  0  0  0
   -3.5548   -2.8180    0.0000 C   0  0  0  0  0  0  0  0  0  0  0  0
   -4.4246   -3.3219    0.0000 C   0  0  0  0  0  0  0  0  0  0  0  0
   -5.2988   -2.8257    0.0000 N   0  0  0  0  0  0  0  0  0  0  0  0
   -5.2942   -1.8205    0.0000 C   0  0  0  0  0  0  0  0  0  0  0  0
   -4.4244   -1.3167    0.0000 C   0  0  0  0  0  0  0  0  0  0  0  0
   -6.1641   -3.3269    0.0000 C   0  0  0  0  0  0  0  0  0  0  0  0
   -6.1627   -4.3269    0.0000 O   0  0  0  0  0  0  0  0  0  0  0  0
   -7.0308   -2.8281    0.0000 C   0  0  0  0  0  0  0  0  0  0  0  0
  1  2  1  0
  2  3  1  0
  2  4  1  0
  4 25  1  0
  4  5  1  0
  5  6  1  0
  6 24  2  0
  6  7  1  0
  7  8  1  0
  8  9  1  0
  9 10  1  0
 10 20  1  0
 10 11  2  0
 11 12  1  0
 12 13  2  0
 13 14  1  0
 14 15  1  0
 15 16  1  0
 15 17  1  0
 15 18  1  0
 13 19  1  0
 19 20  2  0
  7 21  2  0
 21 22  1  0
 22 23  2  0
 23 24  1  0
 24 25  1  0
 25 26  2  0
 22 27  1  0
 27 32  1  0
 27 28  1  0
 28 29  1  0
 29 30  1  0
 30 31  1  0
 31 32  1  0
 30 33  1  0
 33 34  2  0
 33 35  1  0
M  END
>  <SMILES>  (572) 
CC(=O)N1CCN(c2nc(NCc3ccc(OC(F)(F)F)cc3)c3c(n2)C(=O)N(C(C)C)C3)CC1

>  <CollectionName>  (572) 
chembl

>  <LOG PLASMA PROTEIN BINDING (RAT) (% unbound)>  (572) 
1.17897694729

>  <Internal ID>  (572) 


>  <Source>  (572) 
AstraZeneca

$$$$
CHEMBL2021721
     RDKit          2D

 54 59  0  0  1  0  0  0  0  0999 V2000
   12.1567    0.0589    0.0000 C   0  0  0  0  0  0  0  0  0  0  0  0
   12.1511    1.0588    0.0000 O   0  0  0  0  0  0  0  0  0  0  0  0
   11.2823    1.5540    0.0000 C   0  0  0  0  0  0  0  0  0  0  0  0
   10.4134    1.0476    0.0000 C   0  0  0  0  0  0  0  0  0  0  0  0
    9.5377    1.5417    0.0000 C   0  0  0  0  0  0  0  0  0  0  0  0
    9.5393    2.5472    0.0000 C   0  0  0  0  0  0  0  0  0  0  0  0
    8.6658    3.0397    0.0000 C   0  0  0  0  0  0  0  0  0  0  0  0
    8.6624    4.0474    0.0000 C   0  0  0  0  0  0  0  0  0  0  0  0
    9.5306    4.5550    0.0000 C   0  0  0  0  0  0  0  0  0  0  0  0
   10.4021    4.0548    0.0000 C   0  0  0  0  0  0  0  0  0  0  0  0
   10.4076    3.0548    0.0000 C   0  0  0  0  0  0  0  0  0  0  0  0
   11.2753    2.5545    0.0000 C   0  0  0  0  0  0  0  0  0  0  0  0
    7.7942    4.5436    0.0000 S   0  0  0  0  0  0  0  0  0  0  0  0
    7.2980    3.6754    0.0000 O   0  0  0  0  0  0  0  0  0  0  0  0
    8.2903    5.4118    0.0000 O   0  0  0  0  0  0  0  0  0  0  0  0
    6.9259    5.0398    0.0000 N   0  0  0  0  0  0  0  0  0  0  0  0
    6.9215    6.0398    0.0000 C   0  0  0  0  0  0  0  0  0  0  0  0
    6.0533    6.5359    0.0000 C   0  0  0  0  0  0  0  0  0  0  0  0
    5.1895    6.0321    0.0000 C   0  0  0  0  0  0  0  0  0  0  0  0
    5.1939    5.0321    0.0000 O   0  0  0  0  0  0  0  0  0  0  0  0
    4.3213    6.5283    0.0000 N   0  0  0  0  0  0  0  0  0  0  0  0
    3.4575    6.0245    0.0000 C   0  0  0  0  0  0  0  0  0  0  0  0
    3.4619    5.0245    0.0000 C   0  0  0  0  0  0  0  0  0  0  0  0
    2.5981    4.5207    0.0000 C   0  0  0  0  0  0  0  0  0  0  0  0
    1.7291    5.0157    0.0000 C   0  0  0  0  0  0  0  0  0  0  0  0
    0.8631    4.5156    0.0000 C   0  0  0  0  0  0  0  0  0  0  0  0
    0.8660    3.5104    0.0000 C   0  0  0  0  0  0  0  0  0  0  0  0
   -0.0000    3.0104    0.0000 C   0  0  0  0  0  0  0  0  0  0  0  0
   -0.0000    2.0104    0.0000 N   0  0  0  0  0  0  0  0  0  0  0  0
   -0.8675    1.5027    0.0000 C   0  0  0  0  0  0  0  0  0  0  0  0
   -1.7350    2.0001    0.0000 C   0  0  0  0  0  0  0  0  0  0  0  0
   -0.8675    0.4975    0.0000 C   0  0  0  0  0  0  0  0  0  0  0  0
    0.0000    0.0000    0.0000 C   0  0  0  0  0  0  0  0  0  0  0  0
    0.8675    0.4975    0.0000 C   0  0  0  0  0  0  0  0  0  0  0  0
    0.8675    1.5027    0.0000 C   0  0  0  0  0  0  0  0  0  0  0  0
    1.7350    2.0001    0.0000 C   0  0  0  0  0  0  0  0  0  0  0  0
    1.7350    3.0053    0.0000 C   0  0  0  0  0  0  0  0  0  0  0  0
    2.6010    3.5155    0.0000 C   0  0  0  0  0  0  0  0  0  0  0  0
    2.5892    6.5207    0.0000 C   0  0  0  0  0  0  0  0  0  0  0  0
    1.7254    6.0169    0.0000 O   0  0  0  0  0  0  0  0  0  0  0  0
    2.5848    7.5207    0.0000 N   0  0  0  0  0  0  0  0  0  0  0  0
    3.4487    8.0245    0.0000 C   0  0  0  0  0  0  0  0  0  0  0  0
    1.7166    8.0169    0.0000 C   0  0  0  0  0  0  0  0  0  0  0  0
    1.7122    9.0169    0.0000 C   0  0  0  0  0  0  0  0  0  0  0  0
    0.8528    7.5131    0.0000 C   0  0  0  0  0  0  0  0  0  0  0  0
    8.4332    6.9214    0.0000 C   0  0  0  0  0  0  0  0  0  0  0  0
    9.3050    6.4198    0.0000 C   0  0  0  0  0  0  0  0  0  0  0  0
   10.1695    6.9239    0.0000 C   0  0  0  0  0  0  0  0  0  0  0  0
   10.1719    7.9239    0.0000 C   0  0  0  0  0  0  0  0  0  0  0  0
   10.9194    8.5988    0.0000 O   0  0  0  0  0  0  0  0  0  0  0  0
   10.5084    9.5183    0.0000 C   0  0  0  0  0  0  0  0  0  0  0  0
    9.5071    9.4114    0.0000 O   0  0  0  0  0  0  0  0  0  0  0  0
    9.2990    8.4261    0.0000 C   0  0  0  0  0  0  0  0  0  0  0  0
    8.4259    7.9271    0.0000 C   0  0  0  0  0  0  0  0  0  0  0  0
  1  2  1  0
  2  3  1  0
  3 12  2  0
  3  4  1  0
  4  5  2  0
  5  6  1  0
  6 11  2  0
  6  7  1  0
  7  8  2  0
  8  9  1  0
  9 10  2  0
 10 11  1  0
 11 12  1  0
  8 13  1  0
 13 14  2  0
 13 15  2  0
 13 16  1  0
 16 17  1  0
 17 18  1  6
 18 19  1  0
 19 20  2  0
 19 21  1  0
 21 22  1  0
 22 23  1  6
 23 24  1  0
 24 38  1  0
 24 25  2  0
 25 26  1  0
 26 27  2  0
 27 28  1  0
 28 29  1  0
 29 35  1  0
 29 30  1  0
 30 31  1  1
 30 32  1  0
 32 33  1  0
 33 34  1  0
 34 35  1  0
 35 36  1  1
 27 37  1  0
 37 38  2  0
 22 39  1  0
 39 40  2  0
 39 41  1  0
 41 42  1  0
 41 43  1  0
 43 44  1  0
 43 45  1  0
 17 46  1  0
 46 54  1  0
 46 47  2  0
 47 48  1  0
 48 49  2  0
 49 53  1  0
 49 50  1  0
 50 51  1  0
 51 52  1  0
 52 53  1  0
 53 54  2  0
M  END
>  <SMILES>  (573) 
COc1ccc2cc(S(=O)(=O)N[C@H](CC(=O)N[C@H](Cc3ccc(CN4[C@H](C)CCC[C@@H]4C)cc3)C(=O)N(C)C(C)C)c3ccc4c(c3)OCO4)ccc2c1

>  <CollectionName>  (573) 
chembl

>  <LOG PLASMA PROTEIN BINDING (RAT) (% unbound)>  (573) 
0.650307523132

>  <Internal ID>  (573) 


>  <Source>  (573) 
AstraZeneca

$$$$
CHEMBL275742
     RDKit          2D

 19 20  0  0  1  0  0  0  0  0999 V2000
    5.1846    7.0193    0.0000 C   0  0  0  0  0  0  0  0  0  0  0  0
    5.1872    6.0193    0.0000 C   0  0  0  0  0  0  0  0  0  0  0  0
    6.0546    5.5216    0.0000 C   0  0  0  0  0  0  0  0  0  0  0  0
    4.3226    5.5170    0.0000 N   0  0  0  0  0  0  0  0  0  0  0  0
    4.3252    4.5170    0.0000 C   0  0  0  0  0  0  0  0  0  0  0  0
    3.4605    4.0147    0.0000 C   0  0  0  0  0  0  0  0  0  0  0  0
    2.5932    4.5124    0.0000 O   0  0  0  0  0  0  0  0  0  0  0  0
    3.4632    3.0147    0.0000 C   0  0  0  0  0  0  0  0  0  0  0  0
    2.5985    2.5124    0.0000 O   0  0  0  0  0  0  0  0  0  0  0  0
    2.6012    1.5124    0.0000 C   0  0  0  0  0  0  0  0  0  0  0  0
    3.4735    1.0079    0.0000 C   0  0  0  0  0  0  0  0  0  0  0  0
    3.4748    0.0022    0.0000 C   0  0  0  0  0  0  0  0  0  0  0  0
    2.6038   -0.4989    0.0000 C   0  0  0  0  0  0  0  0  0  0  0  0
    1.7371    0.0000    0.0000 C   0  0  0  0  0  0  0  0  0  0  0  0
    0.8679   -0.4978    0.0000 C   0  0  0  0  0  0  0  0  0  0  0  0
    0.0000    0.0000    0.0000 C   0  0  0  0  0  0  0  0  0  0  0  0
    0.0000    1.0057    0.0000 C   0  0  0  0  0  0  0  0  0  0  0  0
    0.8679    1.5135    0.0000 C   0  0  0  0  0  0  0  0  0  0  0  0
    1.7358    1.0057    0.0000 C   0  0  0  0  0  0  0  0  0  0  0  0
  1  2  1  0
  2  3  1  0
  2  4  1  0
  4  5  1  0
  5  6  1  0
  6  7  1  6
  6  8  1  0
  8  9  1  0
  9 10  1  0
 10 19  2  0
 10 11  1  0
 11 12  2  0
 12 13  1  0
 13 14  2  0
 14 19  1  0
 14 15  1  0
 15 16  2  0
 16 17  1  0
 17 18  2  0
 18 19  1  0
M  END
>  <SMILES>  (574) 
CC(C)NC[C@@H](O)COc1cccc2ccccc12

>  <CollectionName>  (574) 
chembl

>  <LOG PLASMA PROTEIN BINDING (RAT) (% unbound)>  (574) 
1.25406445291

>  <Internal ID>  (574) 


>  <Source>  (574) 
AstraZeneca

$$$$
CHEMBL278262
     RDKit          2D

 26 29  0  0  0  0  0  0  0  0999 V2000
    5.3391    3.1570    0.0000 O   0  0  0  0  0  0  0  0  0  0  0  0
    5.1255    2.1800    0.0000 N   0  0  0  0  0  0  0  0  0  0  0  0
    5.8647    1.5066    0.0000 O   0  0  0  0  0  0  0  0  0  0  0  0
    4.1727    1.8766    0.0000 C   0  0  0  0  0  0  0  0  0  0  0  0
    3.9608    0.8940    0.0000 C   0  0  0  0  0  0  0  0  0  0  0  0
    3.0080    0.5904    0.0000 C   0  0  0  0  0  0  0  0  0  0  0  0
    2.2648    1.2596    0.0000 C   0  0  0  0  0  0  0  0  0  0  0  0
    2.4766    2.2422    0.0000 C   0  0  0  0  0  0  0  0  0  0  0  0
    3.4316    2.5557    0.0000 C   0  0  0  0  0  0  0  0  0  0  0  0
    1.3133    0.9519    0.0000 C   0  0  0  0  0  0  0  0  0  0  0  0
    0.5008    1.5428    0.0000 N   0  0  0  0  0  0  0  0  0  0  0  0
   -0.3065    0.9519    0.0000 C   0  0  0  0  0  0  0  0  0  0  0  0
   -1.2577    1.2605    0.0000 C   0  0  0  0  0  0  0  0  0  0  0  0
   -2.0024    0.5854    0.0000 C   0  0  0  0  0  0  0  0  0  0  0  0
   -2.9537    0.8939    0.0000 C   0  0  0  0  0  0  0  0  0  0  0  0
   -3.1677    1.8708    0.0000 C   0  0  0  0  0  0  0  0  0  0  0  0
   -2.4230    2.5459    0.0000 C   0  0  0  0  0  0  0  0  0  0  0  0
   -1.4642    2.2442    0.0000 C   0  0  0  0  0  0  0  0  0  0  0  0
    0.0000    0.0000    0.0000 C   0  0  0  0  0  0  0  0  0  0  0  0
    1.0015   -0.0000    0.0000 N   0  0  0  0  0  0  0  0  0  0  0  0
   -0.5889   -0.8082    0.0000 C   0  0  0  0  0  0  0  0  0  0  0  0
   -0.1785   -1.7259    0.0000 C   0  0  0  0  0  0  0  0  0  0  0  0
   -0.7674   -2.5342    0.0000 C   0  0  0  0  0  0  0  0  0  0  0  0
   -1.7624   -2.4341    0.0000 C   0  0  0  0  0  0  0  0  0  0  0  0
   -2.1727   -1.5165    0.0000 C   0  0  0  0  0  0  0  0  0  0  0  0
   -1.5880   -0.6989    0.0000 C   0  0  0  0  0  0  0  0  0  0  0  0
  1  2  1  0
  2  3  2  0
  2  4  1  0
  4  9  2  0
  4  5  1  0
  5  6  2  0
  6  7  1  0
  7  8  2  0
  8  9  1  0
  7 10  1  0
 10 20  1  0
 10 11  2  0
 11 12  1  0
 12 13  1  0
 13 18  1  0
 13 14  2  0
 14 15  1  0
 15 16  2  0
 16 17  1  0
 17 18  2  0
 12 19  2  0
 19 20  1  0
 19 21  1  0
 21 26  1  0
 21 22  2  0
 22 23  1  0
 23 24  2  0
 24 25  1  0
 25 26  2  0
M  CHG  2   1  -1   2   1
M  END
>  <SMILES>  (575) 
O=[N+]([O-])c1ccc(-c2nc(-c3ccccc3)c(-c3ccccc3)[nH]2)cc1

>  <CollectionName>  (575) 
chembl

>  <LOG PLASMA PROTEIN BINDING (RAT) (% unbound)>  (575) 
-1.22184874962

>  <Internal ID>  (575) 


>  <Source>  (575) 
AstraZeneca

$$$$
CHEMBL73048
     RDKit          2D

 21 21  0  0  1  0  0  0  0  0999 V2000
    3.8311   -1.3691    0.0000 C   0  0  0  0  0  0  0  0  0  0  0  0
    4.3323   -0.5038    0.0000 C   0  0  0  0  0  0  0  0  0  0  0  0
    4.8336    0.3615    0.0000 O   0  0  0  0  0  0  0  0  0  0  0  0
    3.4670   -0.0025    0.0000 C   0  0  0  0  0  0  0  0  0  0  0  0
    3.4685    0.9975    0.0000 O   0  0  0  0  0  0  0  0  0  0  0  0
    2.6003   -0.5013    0.0000 N   0  0  0  0  0  0  0  0  0  0  0  0
    1.7350   -0.0000    0.0000 C   0  0  0  0  0  0  0  0  0  0  0  0
    0.8675   -0.4975    0.0000 C   0  0  0  0  0  0  0  0  0  0  0  0
    0.0000    0.0000    0.0000 C   0  0  0  0  0  0  0  0  0  0  0  0
    0.0000    1.0052    0.0000 C   0  0  0  0  0  0  0  0  0  0  0  0
    0.8675    1.5129    0.0000 C   0  0  0  0  0  0  0  0  0  0  0  0
    1.7350    1.0052    0.0000 C   0  0  0  0  0  0  0  0  0  0  0  0
    2.6025    1.5026    0.0000 Cl  0  0  0  0  0  0  0  0  0  0  0  0
   -0.8675    1.5026    0.0000 S   0  0  0  0  0  0  0  0  0  0  0  0
   -0.3701    2.3701    0.0000 O   0  0  0  0  0  0  0  0  0  0  0  0
   -1.3649    0.6351    0.0000 O   0  0  0  0  0  0  0  0  0  0  0  0
   -1.7350    2.0001    0.0000 C   0  0  0  0  0  0  0  0  0  0  0  0
    5.1976   -1.0050    0.0000 C   0  0  0  0  0  0  0  0  0  0  0  0
    5.6989   -0.1397    0.0000 F   0  0  0  0  0  0  0  0  0  0  0  0
    4.6964   -1.8703    0.0000 F   0  0  0  0  0  0  0  0  0  0  0  0
    6.0629   -1.5063    0.0000 F   0  0  0  0  0  0  0  0  0  0  0  0
  2  1  1  6
  2  3  1  0
  2  4  1  0
  4  5  2  0
  4  6  1  0
  6  7  1  0
  7 12  2  0
  7  8  1  0
  8  9  2  0
  9 10  1  0
 10 11  2  0
 11 12  1  0
 12 13  1  0
 10 14  1  0
 14 15  2  0
 14 16  2  0
 14 17  1  0
  2 18  1  0
 18 19  1  0
 18 20  1  0
 18 21  1  0
M  END
>  <SMILES>  (576) 
C[C@@](O)(C(=O)Nc1ccc(S(C)(=O)=O)cc1Cl)C(F)(F)F

>  <CollectionName>  (576) 
chembl

>  <LOG PLASMA PROTEIN BINDING (RAT) (% unbound)>  (576) 
1.20411998266

>  <Internal ID>  (576) 


>  <Source>  (576) 
AstraZeneca

$$$$
CHEMBL604126
     RDKit          2D

 27 29  0  0  1  0  0  0  0  0999 V2000
    5.2049    1.9797    0.0000 C   0  0  0  0  0  0  0  0  0  0  0  0
    4.3345    1.4874    0.0000 C   0  0  0  0  0  0  0  0  0  0  0  0
    3.4700    2.0002    0.0000 C   0  0  0  0  0  0  0  0  0  0  0  0
    2.5995    1.4976    0.0000 C   0  0  0  0  0  0  0  0  0  0  0  0
    1.7350    2.0001    0.0000 O   0  0  0  0  0  0  0  0  0  0  0  0
    0.8675    1.5027    0.0000 C   0  0  0  0  0  0  0  0  0  0  0  0
   -0.0000    2.0104    0.0000 N   0  0  0  0  0  0  0  0  0  0  0  0
   -0.8675    1.5027    0.0000 C   0  0  0  0  0  0  0  0  0  0  0  0
   -0.8675    0.4975    0.0000 C   0  0  0  0  0  0  0  0  0  0  0  0
    0.0000    0.0000    0.0000 C   0  0  0  0  0  0  0  0  0  0  0  0
    0.8675    0.4975    0.0000 C   0  0  0  0  0  0  0  0  0  0  0  0
    1.7328   -0.0038    0.0000 Cl  0  0  0  0  0  0  0  0  0  0  0  0
   -1.7328   -0.0038    0.0000 C   0  0  0  0  0  0  0  0  0  0  0  0
   -1.2315   -0.8691    0.0000 F   0  0  0  0  0  0  0  0  0  0  0  0
   -2.2341    0.8615    0.0000 F   0  0  0  0  0  0  0  0  0  0  0  0
   -2.5981   -0.5050    0.0000 F   0  0  0  0  0  0  0  0  0  0  0  0
    2.5936    0.4924    0.0000 C   0  0  0  0  0  0  0  0  0  0  0  0
    3.4582   -0.0102    0.0000 C   0  0  0  0  0  0  0  0  0  0  0  0
    4.3286    0.4822    0.0000 C   0  0  0  0  0  0  0  0  0  0  0  0
    5.1909   -0.0242    0.0000 C   0  0  0  0  0  0  0  0  0  0  0  0
    6.0606    0.4694    0.0000 C   0  0  0  0  0  0  0  0  0  0  0  0
    6.1694    1.4639    0.0000 S   0  0  0  0  0  0  0  0  0  0  0  0
    7.1538    1.6647    0.0000 C   0  0  0  0  0  0  0  0  0  0  0  0
    7.5689    2.5745    0.0000 O   0  0  0  0  0  0  0  0  0  0  0  0
    7.6458    0.7922    0.0000 N   0  0  0  0  0  0  0  0  0  0  0  0
    6.9699    0.0532    0.0000 C   0  0  0  0  0  0  0  0  0  0  0  0
    7.1688   -0.9268    0.0000 O   0  0  0  0  0  0  0  0  0  0  0  0
  1  2  1  0
  2 19  2  0
  2  3  1  0
  3  4  2  0
  4  5  1  0
  5  6  1  0
  6 11  1  0
  6  7  2  0
  7  8  1  0
  8  9  2  0
  9 10  1  0
 10 11  2  0
 11 12  1  0
  9 13  1  0
 13 14  1  0
 13 15  1  0
 13 16  1  0
  4 17  1  0
 17 18  2  0
 18 19  1  0
 19 20  1  0
 20 21  1  0
 21 26  1  0
 21 22  1  0
 22 23  1  0
 23 24  2  0
 23 25  1  0
 25 26  1  0
 26 27  2  0
M  END
>  <SMILES>  (577) 
Cc1cc(Oc2ncc(C(F)(F)F)cc2Cl)ccc1CC1SC(=O)NC1=O

>  <CollectionName>  (577) 
chembl

>  <LOG PLASMA PROTEIN BINDING (RAT) (% unbound)>  (577) 
-0.677780705266

>  <Internal ID>  (577) 


>  <Source>  (577) 
AstraZeneca

$$$$
CHEMBL8
     RDKit          2D

 24 27  0  0  0  0  0  0  0  0999 V2000
    5.2125   -0.0170    0.0000 O   0  0  0  0  0  0  0  0  0  0  0  0
    4.3437   -0.5122    0.0000 C   0  0  0  0  0  0  0  0  0  0  0  0
    4.3381   -1.5121    0.0000 O   0  0  0  0  0  0  0  0  0  0  0  0
    3.4805   -0.0073    0.0000 C   0  0  0  0  0  0  0  0  0  0  0  0
    3.4848    1.0014    0.0000 C   0  0  0  0  0  0  0  0  0  0  0  0
    2.6125    1.5125    0.0000 N   0  0  0  0  0  0  0  0  0  0  0  0
    2.6154    2.5125    0.0000 C   0  0  0  0  0  0  0  0  0  0  0  0
    3.1179    3.3792    0.0000 C   0  0  0  0  0  0  0  0  0  0  0  0
    2.1179    3.3821    0.0000 C   0  0  0  0  0  0  0  0  0  0  0  0
    1.7414    1.0089    0.0000 C   0  0  0  0  0  0  0  0  0  0  0  0
    0.8707    1.5185    0.0000 C   0  0  0  0  0  0  0  0  0  0  0  0
    0.0000    1.0089    0.0000 C   0  0  0  0  0  0  0  0  0  0  0  0
   -0.8675    1.5063    0.0000 N   0  0  0  0  0  0  0  0  0  0  0  0
   -0.8764    2.5114    0.0000 C   0  0  0  0  0  0  0  0  0  0  0  0
   -1.7484    3.0115    0.0000 C   0  0  0  0  0  0  0  0  0  0  0  0
   -2.6115    2.5064    0.0000 N   0  0  0  0  0  0  0  0  0  0  0  0
   -2.6115    1.5063    0.0000 C   0  0  0  0  0  0  0  0  0  0  0  0
   -1.7395    1.0063    0.0000 C   0  0  0  0  0  0  0  0  0  0  0  0
    0.0000    0.0000    0.0000 C   0  0  0  0  0  0  0  0  0  0  0  0
   -0.8653   -0.5013    0.0000 F   0  0  0  0  0  0  0  0  0  0  0  0
    0.8707   -0.4993    0.0000 C   0  0  0  0  0  0  0  0  0  0  0  0
    1.7371   -0.0000    0.0000 C   0  0  0  0  0  0  0  0  0  0  0  0
    2.6039   -0.5053    0.0000 C   0  0  0  0  0  0  0  0  0  0  0  0
    2.5983   -1.5053    0.0000 O   0  0  0  0  0  0  0  0  0  0  0  0
  1  2  1  0
  2  3  2  0
  2  4  1  0
  4 23  1  0
  4  5  2  0
  5  6  1  0
  6  7  1  0
  7  9  1  0
  7  8  1  0
  8  9  1  0
  6 10  1  0
 10 22  2  0
 10 11  1  0
 11 12  2  0
 12 13  1  0
 13 18  1  0
 13 14  1  0
 14 15  1  0
 15 16  1  0
 16 17  1  0
 17 18  1  0
 12 19  1  0
 19 20  1  0
 19 21  2  0
 21 22  1  0
 22 23  1  0
 23 24  2  0
M  END
>  <SMILES>  (578) 
O=C(O)c1cn(C2CC2)c2cc(N3CCNCC3)c(F)cc2c1=O

>  <CollectionName>  (578) 
chembl

>  <LOG PLASMA PROTEIN BINDING (RAT) (% unbound)>  (578) 
1.75480685535

>  <Internal ID>  (578) 


>  <Source>  (578) 
AstraZeneca

$$$$
CHEMBL723
     RDKit          2D

 30 33  0  0  1  0  0  0  0  0999 V2000
    7.0022  -10.2233    0.0000 C   0  0  0  0  0  0  0  0  0  0  0  0
    6.3388   -9.4750    0.0000 O   0  0  0  0  0  0  0  0  0  0  0  0
    5.3591   -9.6754    0.0000 C   0  0  0  0  0  0  0  0  0  0  0  0
    5.0414  -10.6236    0.0000 C   0  0  0  0  0  0  0  0  0  0  0  0
    4.0625  -10.8282    0.0000 C   0  0  0  0  0  0  0  0  0  0  0  0
    3.3946  -10.0770    0.0000 C   0  0  0  0  0  0  0  0  0  0  0  0
    3.7055   -9.1212    0.0000 C   0  0  0  0  0  0  0  0  0  0  0  0
    4.6912   -8.9242    0.0000 C   0  0  0  0  0  0  0  0  0  0  0  0
    5.0090   -7.9760    0.0000 O   0  0  0  0  0  0  0  0  0  0  0  0
    4.3467   -7.2267    0.0000 C   0  0  0  0  0  0  0  0  0  0  0  0
    4.6645   -6.2785    0.0000 C   0  0  0  0  0  0  0  0  0  0  0  0
    4.0022   -5.5293    0.0000 N   0  0  0  0  0  0  0  0  0  0  0  0
    4.3200   -4.5811    0.0000 C   0  0  0  0  0  0  0  0  0  0  0  0
    3.6577   -3.8318    0.0000 C   0  0  0  0  0  0  0  0  0  0  0  0
    2.6777   -4.0307    0.0000 O   0  0  0  0  0  0  0  0  0  0  0  0
    3.9755   -2.8836    0.0000 C   0  0  0  0  0  0  0  0  0  0  0  0
    3.3132   -2.1344    0.0000 O   0  0  0  0  0  0  0  0  0  0  0  0
    3.6310   -1.1862    0.0000 C   0  0  0  0  0  0  0  0  0  0  0  0
    4.6229   -0.9863    0.0000 C   0  0  0  0  0  0  0  0  0  0  0  0
    4.9434   -0.0258    0.0000 C   0  0  0  0  0  0  0  0  0  0  0  0
    4.2719    0.7349    0.0000 C   0  0  0  0  0  0  0  0  0  0  0  0
    3.2835    0.5280    0.0000 C   0  0  0  0  0  0  0  0  0  0  0  0
    2.4666    1.1220    0.0000 N   0  0  0  0  0  0  0  0  0  0  0  0
    1.6566    0.5296    0.0000 C   0  0  0  0  0  0  0  0  0  0  0  0
    0.6786    0.7423    0.0000 C   0  0  0  0  0  0  0  0  0  0  0  0
    0.0000    0.0000    0.0000 C   0  0  0  0  0  0  0  0  0  0  0  0
    0.3065   -0.9587    0.0000 C   0  0  0  0  0  0  0  0  0  0  0  0
    1.2916   -1.1750    0.0000 C   0  0  0  0  0  0  0  0  0  0  0  0
    1.9631   -0.4291    0.0000 C   0  0  0  0  0  0  0  0  0  0  0  0
    2.9631   -0.4326    0.0000 C   0  0  0  0  0  0  0  0  0  0  0  0
  1  2  1  0
  2  3  1  0
  3  8  2  0
  3  4  1  0
  4  5  2  0
  5  6  1  0
  6  7  2  0
  7  8  1  0
  8  9  1  0
  9 10  1  0
 10 11  1  0
 11 12  1  0
 12 13  1  0
 13 14  1  0
 14 15  1  0
 14 16  1  0
 16 17  1  0
 17 18  1  0
 18 30  1  0
 18 19  2  0
 19 20  1  0
 20 21  2  0
 21 22  1  0
 22 30  2  0
 22 23  1  0
 23 24  1  0
 24 29  2  0
 24 25  1  0
 25 26  2  0
 26 27  1  0
 27 28  2  0
 28 29  1  0
 29 30  1  0
M  END
>  <SMILES>  (579) 
COc1ccccc1OCCNCC(O)COc1cccc2[nH]c3ccccc3c12

>  <CollectionName>  (579) 
chembl

>  <LOG PLASMA PROTEIN BINDING (RAT) (% unbound)>  (579) 
0.41830129132

>  <Internal ID>  (579) 


>  <Source>  (579) 
AstraZeneca

$$$$
CHEMBL741
     RDKit          2D

 16 17  0  0  0  0  0  0  0  0999 V2000
    2.6003   -0.5013    0.0000 N   0  0  0  0  0  0  0  0  0  0  0  0
    1.7350    0.0000    0.0000 C   0  0  0  0  0  0  0  0  0  0  0  0
    1.7350    1.0052    0.0000 N   0  0  0  0  0  0  0  0  0  0  0  0
    0.8675    1.5129    0.0000 N   0  0  0  0  0  0  0  0  0  0  0  0
    0.0000    1.0052    0.0000 C   0  0  0  0  0  0  0  0  0  0  0  0
    0.0000    0.0000    0.0000 C   0  0  0  0  0  0  0  0  0  0  0  0
   -0.8653   -0.5013    0.0000 N   0  0  0  0  0  0  0  0  0  0  0  0
    0.8675   -0.4975    0.0000 N   0  0  0  0  0  0  0  0  0  0  0  0
   -0.8675    1.5026    0.0000 C   0  0  0  0  0  0  0  0  0  0  0  0
   -0.8675    2.5078    0.0000 C   0  0  0  0  0  0  0  0  0  0  0  0
   -1.7350    3.0053    0.0000 C   0  0  0  0  0  0  0  0  0  0  0  0
   -2.6025    2.5078    0.0000 C   0  0  0  0  0  0  0  0  0  0  0  0
   -2.6025    1.5026    0.0000 C   0  0  0  0  0  0  0  0  0  0  0  0
   -3.4700    1.0052    0.0000 Cl  0  0  0  0  0  0  0  0  0  0  0  0
   -1.7350    0.9949    0.0000 C   0  0  0  0  0  0  0  0  0  0  0  0
   -1.7350   -0.0051    0.0000 Cl  0  0  0  0  0  0  0  0  0  0  0  0
  1  2  1  0
  2  8  2  0
  2  3  1  0
  3  4  2  0
  4  5  1  0
  5  6  2  0
  6  7  1  0
  6  8  1  0
  5  9  1  0
  9 15  1  0
  9 10  2  0
 10 11  1  0
 11 12  2  0
 12 13  1  0
 13 14  1  0
 13 15  2  0
 15 16  1  0
M  END
>  <SMILES>  (580) 
Nc1nnc(-c2cccc(Cl)c2Cl)c(N)n1

>  <CollectionName>  (580) 
chembl

>  <LOG PLASMA PROTEIN BINDING (RAT) (% unbound)>  (580) 
1.70884563805

>  <Internal ID>  (580) 


>  <Source>  (580) 
AstraZeneca

$$$$
CHEMBL1944694
     RDKit          2D

 35 38  0  0  1  0  0  0  0  0999 V2000
   -4.3143   11.5227    0.0000 C   0  0  0  0  0  0  0  0  0  0  0  0
   -5.1774   12.0278    0.0000 O   0  0  0  0  0  0  0  0  0  0  0  0
   -6.0463   11.5329    0.0000 C   0  0  0  0  0  0  0  0  0  0  0  0
   -6.9123   12.0431    0.0000 C   0  0  0  0  0  0  0  0  0  0  0  0
   -7.7813   11.5380    0.0000 C   0  0  0  0  0  0  0  0  0  0  0  0
   -7.7843   10.5328    0.0000 C   0  0  0  0  0  0  0  0  0  0  0  0
   -6.9183   10.0327    0.0000 C   0  0  0  0  0  0  0  0  0  0  0  0
   -6.0493   10.5277    0.0000 C   0  0  0  0  0  0  0  0  0  0  0  0
   -5.1855   10.0239    0.0000 C   0  0  0  0  0  0  0  0  0  0  0  0
   -5.1899    9.0239    0.0000 C   0  0  0  0  0  0  0  0  0  0  0  0
   -4.3261    8.5201    0.0000 N   0  0  0  0  0  0  0  0  0  0  0  0
   -4.3305    7.5201    0.0000 C   0  0  0  0  0  0  0  0  0  0  0  0
   -3.4667    7.0163    0.0000 C   0  0  0  0  0  0  0  0  0  0  0  0
   -2.5954    7.5176    0.0000 C   0  0  0  0  0  0  0  0  0  0  0  0
   -1.7315    7.0138    0.0000 C   0  0  0  0  0  0  0  0  0  0  0  0
   -1.7301    6.0138    0.0000 C   0  0  0  0  0  0  0  0  0  0  0  0
   -0.8641    5.5138    0.0000 C   0  0  0  0  0  0  0  0  0  0  0  0
   -0.8641    4.5138    0.0000 C   0  0  0  0  0  0  0  0  0  0  0  0
    0.0020    4.0138    0.0000 N   0  0  0  0  0  0  0  0  0  0  0  0
    0.0020    3.0138    0.0000 C   0  0  0  0  0  0  0  0  0  0  0  0
    0.8680    2.5138    0.0000 C   0  0  0  0  0  0  0  0  0  0  0  0
    1.7340    3.0138    0.0000 O   0  0  0  0  0  0  0  0  0  0  0  0
    0.8680    1.5138    0.0000 C   0  0  0  0  0  0  0  0  0  0  0  0
    0.0000    1.0058    0.0000 C   0  0  0  0  0  0  0  0  0  0  0  0
    0.0000    0.0000    0.0000 C   0  0  0  0  0  0  0  0  0  0  0  0
    0.8680   -0.4978    0.0000 C   0  0  0  0  0  0  0  0  0  0  0  0
    0.8675   -1.4978    0.0000 O   0  0  0  0  0  0  0  0  0  0  0  0
    1.7360   -0.0012    0.0000 C   0  0  0  0  0  0  0  0  0  0  0  0
    2.6938   -0.3125    0.0000 N   0  0  0  0  0  0  0  0  0  0  0  0
    3.2858    0.5023    0.0000 C   0  0  0  0  0  0  0  0  0  0  0  0
    4.2858    0.5024    0.0000 O   0  0  0  0  0  0  0  0  0  0  0  0
    2.6938    1.3169    0.0000 S   0  0  0  0  0  0  0  0  0  0  0  0
    1.7360    1.0058    0.0000 C   0  0  0  0  0  0  0  0  0  0  0  0
   -2.6013    5.5125    0.0000 C   0  0  0  0  0  0  0  0  0  0  0  0
   -3.4740    6.0112    0.0000 C   0  0  0  0  0  0  0  0  0  0  0  0
  1  2  1  0
  2  3  1  0
  3  8  2  0
  3  4  1  0
  4  5  2  0
  5  6  1  0
  6  7  2  0
  7  8  1  0
  8  9  1  0
  9 10  1  0
 10 11  1  0
 11 12  1  0
 12 13  1  0
 13 35  1  0
 13 14  2  0
 14 15  1  0
 15 16  2  0
 16 17  1  0
 17 18  1  0
 18 19  1  0
 19 20  1  0
 20 21  1  0
 21 22  1  6
 21 23  1  0
 23 33  1  0
 23 24  2  0
 24 25  1  0
 25 26  2  0
 26 27  1  0
 26 28  1  0
 28 33  2  0
 28 29  1  0
 29 30  1  0
 30 31  2  0
 30 32  1  0
 32 33  1  0
 16 34  1  0
 34 35  2  0
M  END
>  <SMILES>  (581) 
COc1ccccc1CCNCc1ccc(CCNC[C@H](O)c2ccc(O)c3[nH]c(=O)sc23)cc1

>  <CollectionName>  (581) 
chembl

>  <LOG PLASMA PROTEIN BINDING (RAT) (% unbound)>  (581) 
0.782472624166

>  <Internal ID>  (581) 


>  <Source>  (581) 
AstraZeneca

$$$$
CHEMBL208943
     RDKit          2D

 36 41  0  0  1  0  0  0  0  0999 V2000
    1.7313   -1.0038    0.0000 O   0  0  0  0  0  0  0  0  0  0  0  0
    1.7328   -0.0038    0.0000 C   0  0  0  0  0  0  0  0  0  0  0  0
    0.8675    0.4975    0.0000 C   0  0  0  0  0  0  0  0  0  0  0  0
    0.0000    0.0000    0.0000 C   0  0  0  0  0  0  0  0  0  0  0  0
   -0.8675    0.4975    0.0000 C   0  0  0  0  0  0  0  0  0  0  0  0
   -0.8675    1.5027    0.0000 C   0  0  0  0  0  0  0  0  0  0  0  0
   -0.0000    2.0104    0.0000 N   0  0  0  0  0  0  0  0  0  0  0  0
    0.8675    1.5027    0.0000 C   0  0  0  0  0  0  0  0  0  0  0  0
   -0.0000    3.0104    0.0000 C   0  0  0  0  0  0  0  0  0  0  0  0
   -0.8675    3.5079    0.0000 C   0  0  0  0  0  0  0  0  0  0  0  0
   -0.8675    4.5131    0.0000 C   0  0  0  0  0  0  0  0  0  0  0  0
   -0.0000    5.0208    0.0000 N   0  0  0  0  0  0  0  0  0  0  0  0
    0.8675    4.5131    0.0000 C   0  0  0  0  0  0  0  0  0  0  0  0
    0.8675    3.5079    0.0000 C   0  0  0  0  0  0  0  0  0  0  0  0
   -0.0000    6.0208    0.0000 C   0  0  0  0  0  0  0  0  0  0  0  0
   -0.8660    6.5208    0.0000 O   0  0  0  0  0  0  0  0  0  0  0  0
    0.8660    6.5208    0.0000 C   0  0  0  0  0  0  0  0  0  0  0  0
    1.7362    6.0224    0.0000 C   0  0  0  0  0  0  0  0  0  0  0  0
    1.7277    5.0169    0.0000 C   0  0  0  0  0  0  0  0  0  0  0  0
    2.6001    4.5168    0.0000 C   0  0  0  0  0  0  0  0  0  0  0  0
    3.4723    5.0173    0.0000 C   0  0  0  0  0  0  0  0  0  0  0  0
    3.4721    6.0178    0.0000 C   0  0  0  0  0  0  0  0  0  0  0  0
    2.6078    6.5240    0.0000 C   0  0  0  0  0  0  0  0  0  0  0  0
    2.6092    7.5240    0.0000 C   0  0  0  0  0  0  0  0  0  0  0  0
    1.7437    8.0305    0.0000 C   0  0  0  0  0  0  0  0  0  0  0  0
    1.7461    9.0330    0.0000 C   0  0  0  0  0  0  0  0  0  0  0  0
    0.8762    9.5411    0.0000 C   0  0  0  0  0  0  0  0  0  0  0  0
    0.0020    9.0390    0.0000 C   0  0  0  0  0  0  0  0  0  0  0  0
   -0.0024    8.0290    0.0000 C   0  0  0  0  0  0  0  0  0  0  0  0
    0.8695    7.5285    0.0000 C   0  0  0  0  0  0  0  0  0  0  0  0
    2.5995    0.4950    0.0000 N   0  0  0  0  0  0  0  0  0  0  0  0
    2.5981    1.4950    0.0000 C   0  0  0  0  0  0  0  0  0  0  0  0
    3.4694    1.9964    0.0000 C   0  0  0  0  0  0  0  0  0  0  0  0
    4.3421    1.4977    0.0000 O   0  0  0  0  0  0  0  0  0  0  0  0
    4.3347    0.4925    0.0000 C   0  0  0  0  0  0  0  0  0  0  0  0
    3.4634   -0.0088    0.0000 C   0  0  0  0  0  0  0  0  0  0  0  0
  1  2  2  0
  3  2  1  6
  3  8  1  0
  3  4  1  0
  4  5  1  0
  5  6  1  0
  6  7  1  0
  7  8  1  0
  7  9  1  0
  9 14  1  0
  9 10  1  0
 10 11  1  0
 11 12  1  0
 12 13  1  0
 13 14  1  0
 12 15  1  0
 15 16  2  0
 15 17  1  0
 17 30  2  0
 17 18  1  0
 18 23  1  0
 18 19  2  0
 19 20  1  0
 20 21  2  0
 21 22  1  0
 22 23  2  0
 23 24  1  0
 24 25  2  0
 25 30  1  0
 25 26  1  0
 26 27  2  0
 27 28  1  0
 28 29  2  0
 29 30  1  0
  2 31  1  0
 31 36  1  0
 31 32  1  0
 32 33  1  0
 33 34  1  0
 34 35  1  0
 35 36  1  0
M  END
>  <SMILES>  (582) 
O=C(c1c2ccccc2cc2ccccc12)N1CCC(N2CCC[C@@H](C(=O)N3CCOCC3)C2)CC1

>  <CollectionName>  (582) 
chembl

>  <LOG PLASMA PROTEIN BINDING (RAT) (% unbound)>  (582) 
1.4255342205

>  <Internal ID>  (582) 


>  <Source>  (582) 
AstraZeneca

$$$$
CHEMBL210730
     RDKit          2D

 18 20  0  0  0  0  0  0  0  0999 V2000
    4.2857    1.2285    0.0000 O   0  0  0  0  0  0  0  0  0  0  0  0
    4.7857    0.3625    0.0000 C   0  0  0  0  0  0  0  0  0  0  0  0
    4.2858   -0.5035    0.0000 N   0  0  0  0  0  0  0  0  0  0  0  0
    3.2858   -0.5036    0.0000 C   0  0  0  0  0  0  0  0  0  0  0  0
    2.6938   -1.3184    0.0000 N   0  0  0  0  0  0  0  0  0  0  0  0
    1.7360   -1.0071    0.0000 C   0  0  0  0  0  0  0  0  0  0  0  0
    0.8680   -1.5037    0.0000 C   0  0  0  0  0  0  0  0  0  0  0  0
    0.0000   -1.0058    0.0000 C   0  0  0  0  0  0  0  0  0  0  0  0
    0.0000    0.0000    0.0000 C   0  0  0  0  0  0  0  0  0  0  0  0
    0.8680    0.5079    0.0000 C   0  0  0  0  0  0  0  0  0  0  0  0
    1.7360   -0.0000    0.0000 C   0  0  0  0  0  0  0  0  0  0  0  0
    2.6938    0.3110    0.0000 N   0  0  0  0  0  0  0  0  0  0  0  0
    5.7857    0.3626    0.0000 C   0  0  0  0  0  0  0  0  0  0  0  0
    6.2857    1.2346    0.0000 C   0  0  0  0  0  0  0  0  0  0  0  0
    7.2858    1.2347    0.0000 C   0  0  0  0  0  0  0  0  0  0  0  0
    7.7909    0.3716    0.0000 C   0  0  0  0  0  0  0  0  0  0  0  0
    7.2909   -0.5004    0.0000 C   0  0  0  0  0  0  0  0  0  0  0  0
    6.2858   -0.5094    0.0000 C   0  0  0  0  0  0  0  0  0  0  0  0
  1  2  2  0
  2  3  1  0
  3  4  1  0
  4 12  1  0
  4  5  2  0
  5  6  1  0
  6 11  2  0
  6  7  1  0
  7  8  2  0
  8  9  1  0
  9 10  2  0
 10 11  1  0
 11 12  1  0
  2 13  1  0
 13 18  1  0
 13 14  2  0
 14 15  1  0
 15 16  2  0
 16 17  1  0
 17 18  2  0
M  END
>  <SMILES>  (583) 
O=C(Nc1nc2ccccc2[nH]1)c1ccccc1

>  <CollectionName>  (583) 
chembl

>  <LOG PLASMA PROTEIN BINDING (RAT) (% unbound)>  (583) 
1.10140335056

>  <Internal ID>  (583) 


>  <Source>  (583) 
AstraZeneca

$$$$
CHEMBL217899
     RDKit          2D

 24 28  0  0  0  0  0  0  0  0999 V2000
    1.5887    1.3629    0.0000 C   0  0  0  0  0  0  0  0  0  0  0  0
    0.6376    1.6719    0.0000 C   0  0  0  0  0  0  0  0  0  0  0  0
   -0.1055    1.0028    0.0000 C   0  0  0  0  0  0  0  0  0  0  0  0
    0.0000    0.0000    0.0000 N   0  0  0  0  0  0  0  0  0  0  0  0
   -0.9213   -0.4101    0.0000 N   0  0  0  0  0  0  0  0  0  0  0  0
   -1.1293   -1.3882    0.0000 C   0  0  0  0  0  0  0  0  0  0  0  0
   -0.4598   -2.1333    0.0000 C   0  0  0  0  0  0  0  0  0  0  0  0
   -0.9594   -3.0011    0.0000 C   0  0  0  0  0  0  0  0  0  0  0  0
   -1.9373   -2.7919    0.0000 C   0  0  0  0  0  0  0  0  0  0  0  0
   -2.0465   -1.7976    0.0000 C   0  0  0  0  0  0  0  0  0  0  0  0
   -1.5959    0.3392    0.0000 C   0  0  0  0  0  0  0  0  0  0  0  0
   -1.0917    1.2125    0.0000 C   0  0  0  0  0  0  0  0  0  0  0  0
   -1.5931    2.0865    0.0000 C   0  0  0  0  0  0  0  0  0  0  0  0
   -2.6014    2.0865    0.0000 C   0  0  0  0  0  0  0  0  0  0  0  0
   -3.1084    1.2125    0.0000 N   0  0  0  0  0  0  0  0  0  0  0  0
   -4.0855    0.9998    0.0000 C   0  0  0  0  0  0  0  0  0  0  0  0
   -4.1854    0.0047    0.0000 N   0  0  0  0  0  0  0  0  0  0  0  0
   -3.2698   -0.3975    0.0000 N   0  0  0  0  0  0  0  0  0  0  0  0
   -2.6042    0.3489    0.0000 C   0  0  0  0  0  0  0  0  0  0  0  0
   -4.8318    1.6654    0.0000 C   0  0  0  0  0  0  0  0  0  0  0  0
   -5.8108    1.4534    0.0000 C   0  0  0  0  0  0  0  0  0  0  0  0
   -6.3169    2.3176    0.0000 C   0  0  0  0  0  0  0  0  0  0  0  0
   -5.6504    3.0631    0.0000 C   0  0  0  0  0  0  0  0  0  0  0  0
   -4.7326    2.6651    0.0000 S   0  0  0  0  0  0  0  0  0  0  0  0
  1  2  1  0
  2  3  1  0
  3 12  1  0
  3  4  2  0
  4  5  1  0
  5  6  1  0
  6 10  1  0
  6  7  1  0
  7  8  1  0
  8  9  1  0
  9 10  1  0
  5 11  1  0
 11 19  1  0
 11 12  2  0
 12 13  1  0
 13 14  1  0
 14 15  1  0
 15 19  1  0
 15 16  1  0
 16 17  2  0
 17 18  1  0
 18 19  2  0
 16 20  1  0
 20 24  1  0
 20 21  2  0
 21 22  1  0
 22 23  2  0
 23 24  1  0
M  END
>  <SMILES>  (584) 
CCc1nn(C2CCCC2)c2c1CCn1c(-c3cccs3)nnc1-2

>  <CollectionName>  (584) 
chembl

>  <LOG PLASMA PROTEIN BINDING (RAT) (% unbound)>  (584) 
0.67851837904

>  <Internal ID>  (584) 


>  <Source>  (584) 
AstraZeneca

$$$$
CHEMBL560377
     RDKit          2D

 29 33  0  0  0  0  0  0  0  0999 V2000
    4.3535    1.4968    0.0000 C   0  0  0  0  0  0  0  0  0  0  0  0
    4.3588    2.4968    0.0000 O   0  0  0  0  0  0  0  0  0  0  0  0
    5.2275    2.9921    0.0000 C   0  0  0  0  0  0  0  0  0  0  0  0
    5.2299    3.9973    0.0000 C   0  0  0  0  0  0  0  0  0  0  0  0
    6.0986    4.4928    0.0000 C   0  0  0  0  0  0  0  0  0  0  0  0
    6.9649    3.9932    0.0000 C   0  0  0  0  0  0  0  0  0  0  0  0
    6.9625    2.9880    0.0000 C   0  0  0  0  0  0  0  0  0  0  0  0
    6.0938    2.4824    0.0000 C   0  0  0  0  0  0  0  0  0  0  0  0
    7.8314    4.4924    0.0000 C   0  0  0  0  0  0  0  0  0  0  0  0
    7.9338    5.4876    0.0000 N   0  0  0  0  0  0  0  0  0  0  0  0
    8.9169    5.6947    0.0000 N   0  0  0  0  0  0  0  0  0  0  0  0
    9.4145    4.8253    0.0000 C   0  0  0  0  0  0  0  0  0  0  0  0
    8.7433    4.0820    0.0000 C   0  0  0  0  0  0  0  0  0  0  0  0
    8.9486    3.1033    0.0000 C   0  0  0  0  0  0  0  0  0  0  0  0
    9.8997    2.7944    0.0000 C   0  0  0  0  0  0  0  0  0  0  0  0
   10.1061    1.8106    0.0000 C   0  0  0  0  0  0  0  0  0  0  0  0
    9.3613    1.1357    0.0000 N   0  0  0  0  0  0  0  0  0  0  0  0
    8.4080    1.4545    0.0000 C   0  0  0  0  0  0  0  0  0  0  0  0
    8.2017    2.4383    0.0000 C   0  0  0  0  0  0  0  0  0  0  0  0
    3.4848    1.0014    0.0000 C   0  0  0  0  0  0  0  0  0  0  0  0
    3.4805   -0.0073    0.0000 C   0  0  0  0  0  0  0  0  0  0  0  0
    2.6039   -0.5053    0.0000 C   0  0  0  0  0  0  0  0  0  0  0  0
    1.7371    0.0000    0.0000 C   0  0  0  0  0  0  0  0  0  0  0  0
    0.8707   -0.4993    0.0000 C   0  0  0  0  0  0  0  0  0  0  0  0
    0.0000    0.0000    0.0000 C   0  0  0  0  0  0  0  0  0  0  0  0
    0.0000    1.0089    0.0000 C   0  0  0  0  0  0  0  0  0  0  0  0
    0.8707    1.5185    0.0000 C   0  0  0  0  0  0  0  0  0  0  0  0
    1.7414    1.0089    0.0000 C   0  0  0  0  0  0  0  0  0  0  0  0
    2.6125    1.5125    0.0000 N   0  0  0  0  0  0  0  0  0  0  0  0
  1  2  1  0
  2  3  1  0
  3  8  1  0
  3  4  2  0
  4  5  1  0
  5  6  2  0
  6  7  1  0
  7  8  2  0
  6  9  1  0
  9 13  1  0
  9 10  2  0
 10 11  1  0
 11 12  1  0
 12 13  2  0
 13 14  1  0
 14 19  1  0
 14 15  2  0
 15 16  1  0
 16 17  2  0
 17 18  1  0
 18 19  2  0
  1 20  1  0
 20 29  1  0
 20 21  2  0
 21 22  1  0
 22 23  2  0
 23 28  1  0
 23 24  1  0
 24 25  2  0
 25 26  1  0
 26 27  2  0
 27 28  1  0
 28 29  2  0
M  END
>  <SMILES>  (585) 
c1ccc2nc(COc3ccc(-c4n[nH]cc4-c4ccncc4)cc3)ccc2c1

>  <CollectionName>  (585) 
chembl

>  <LOG PLASMA PROTEIN BINDING (RAT) (% unbound)>  (585) 
-0.744727494897

>  <Internal ID>  (585) 


>  <Source>  (585) 
AstraZeneca

$$$$
CHEMBL560423
     RDKit          2D

 27 29  0  0  0  0  0  0  0  0999 V2000
    4.5629    6.7229    0.0000 O   0  0  0  0  0  0  0  0  0  0  0  0
    5.2374    5.9846    0.0000 C   0  0  0  0  0  0  0  0  0  0  0  0
    4.3670    5.4923    0.0000 C   0  0  0  0  0  0  0  0  0  0  0  0
    4.3581    4.4923    0.0000 N   0  0  0  0  0  0  0  0  0  0  0  0
    3.4877    4.0000    0.0000 C   0  0  0  0  0  0  0  0  0  0  0  0
    2.6261    4.5077    0.0000 O   0  0  0  0  0  0  0  0  0  0  0  0
    3.4788    3.0001    0.0000 C   0  0  0  0  0  0  0  0  0  0  0  0
    2.6025    2.5078    0.0000 C   0  0  0  0  0  0  0  0  0  0  0  0
    2.6025    1.5026    0.0000 C   0  0  0  0  0  0  0  0  0  0  0  0
    3.4700    0.9949    0.0000 C   0  0  0  0  0  0  0  0  0  0  0  0
    4.3376    1.4923    0.0000 C   0  0  0  0  0  0  0  0  0  0  0  0
    4.3464    2.4923    0.0000 C   0  0  0  0  0  0  0  0  0  0  0  0
    5.2161    2.9859    0.0000 Cl  0  0  0  0  0  0  0  0  0  0  0  0
    1.7350    1.0052    0.0000 N   0  0  0  0  0  0  0  0  0  0  0  0
    0.8675    1.5129    0.0000 N   0  0  0  0  0  0  0  0  0  0  0  0
    0.0000    1.0052    0.0000 C   0  0  0  0  0  0  0  0  0  0  0  0
    0.0000    0.0000    0.0000 C   0  0  0  0  0  0  0  0  0  0  0  0
   -0.8653   -0.5013    0.0000 O   0  0  0  0  0  0  0  0  0  0  0  0
    0.8675   -0.4975    0.0000 N   0  0  0  0  0  0  0  0  0  0  0  0
    1.7350    0.0000    0.0000 C   0  0  0  0  0  0  0  0  0  0  0  0
    2.6003   -0.5013    0.0000 O   0  0  0  0  0  0  0  0  0  0  0  0
    5.5226    5.0261    0.0000 C   0  0  0  0  0  0  0  0  0  0  0  0
    6.4573    4.6512    0.0000 C   0  0  0  0  0  0  0  0  0  0  0  0
    7.3320    5.1488    0.0000 C   0  0  0  0  0  0  0  0  0  0  0  0
    7.4856    6.1428    0.0000 C   0  0  0  0  0  0  0  0  0  0  0  0
    6.8105    6.8852    0.0000 C   0  0  0  0  0  0  0  0  0  0  0  0
    5.8101    6.8128    0.0000 C   0  0  0  0  0  0  0  0  0  0  0  0
  1  2  1  0
  2 27  1  0
  2  3  1  0
  3  4  1  0
  4  5  1  0
  5  6  2  0
  5  7  1  0
  7 12  1  0
  7  8  2  0
  8  9  1  0
  9 10  2  0
 10 11  1  0
 11 12  2  0
 12 13  1  0
  9 14  1  0
 14 20  1  0
 14 15  1  0
 15 16  2  0
 16 17  1  0
 17 18  2  0
 17 19  1  0
 19 20  1  0
 20 21  2  0
  2 22  1  0
 22 23  1  0
 23 24  1  0
 24 25  1  0
 25 26  1  0
 26 27  1  0
M  END
>  <SMILES>  (586) 
O=C(NCC1(O)CCCCCC1)c1cc(-n2ncc(=O)[nH]c2=O)ccc1Cl

>  <CollectionName>  (586) 
chembl

>  <LOG PLASMA PROTEIN BINDING (RAT) (% unbound)>  (586) 
1.11025291735

>  <Internal ID>  (586) 


>  <Source>  (586) 
AstraZeneca

$$$$
CHEMBL562318
     RDKit          2D

 30 34  0  0  0  0  0  0  0  0999 V2000
    9.3262    6.6071    0.0000 C   0  0  0  0  0  0  0  0  0  0  0  0
    8.9169    5.6947    0.0000 N   0  0  0  0  0  0  0  0  0  0  0  0
    9.4145    4.8253    0.0000 C   0  0  0  0  0  0  0  0  0  0  0  0
    8.7433    4.0820    0.0000 C   0  0  0  0  0  0  0  0  0  0  0  0
    8.9486    3.1033    0.0000 C   0  0  0  0  0  0  0  0  0  0  0  0
    9.8997    2.7944    0.0000 C   0  0  0  0  0  0  0  0  0  0  0  0
   10.1061    1.8106    0.0000 C   0  0  0  0  0  0  0  0  0  0  0  0
    9.3613    1.1357    0.0000 N   0  0  0  0  0  0  0  0  0  0  0  0
    8.4080    1.4545    0.0000 C   0  0  0  0  0  0  0  0  0  0  0  0
    8.2017    2.4383    0.0000 C   0  0  0  0  0  0  0  0  0  0  0  0
    7.8314    4.4924    0.0000 C   0  0  0  0  0  0  0  0  0  0  0  0
    7.9338    5.4876    0.0000 N   0  0  0  0  0  0  0  0  0  0  0  0
    6.9649    3.9932    0.0000 C   0  0  0  0  0  0  0  0  0  0  0  0
    6.0986    4.4928    0.0000 C   0  0  0  0  0  0  0  0  0  0  0  0
    5.2299    3.9973    0.0000 C   0  0  0  0  0  0  0  0  0  0  0  0
    5.2275    2.9921    0.0000 C   0  0  0  0  0  0  0  0  0  0  0  0
    4.3588    2.4968    0.0000 O   0  0  0  0  0  0  0  0  0  0  0  0
    4.3535    1.4968    0.0000 C   0  0  0  0  0  0  0  0  0  0  0  0
    3.4848    1.0014    0.0000 C   0  0  0  0  0  0  0  0  0  0  0  0
    3.4805   -0.0073    0.0000 C   0  0  0  0  0  0  0  0  0  0  0  0
    2.6039   -0.5053    0.0000 C   0  0  0  0  0  0  0  0  0  0  0  0
    1.7371    0.0000    0.0000 C   0  0  0  0  0  0  0  0  0  0  0  0
    0.8707   -0.4993    0.0000 C   0  0  0  0  0  0  0  0  0  0  0  0
    0.0000    0.0000    0.0000 C   0  0  0  0  0  0  0  0  0  0  0  0
    0.0000    1.0089    0.0000 C   0  0  0  0  0  0  0  0  0  0  0  0
    0.8707    1.5185    0.0000 C   0  0  0  0  0  0  0  0  0  0  0  0
    1.7414    1.0089    0.0000 C   0  0  0  0  0  0  0  0  0  0  0  0
    2.6125    1.5125    0.0000 N   0  0  0  0  0  0  0  0  0  0  0  0
    6.0938    2.4824    0.0000 C   0  0  0  0  0  0  0  0  0  0  0  0
    6.9625    2.9880    0.0000 C   0  0  0  0  0  0  0  0  0  0  0  0
  1  2  1  0
  2 12  1  0
  2  3  1  0
  3  4  2  0
  4  5  1  0
  5 10  1  0
  5  6  2  0
  6  7  1  0
  7  8  2  0
  8  9  1  0
  9 10  2  0
  4 11  1  0
 11 12  2  0
 11 13  1  0
 13 30  1  0
 13 14  2  0
 14 15  1  0
 15 16  2  0
 16 17  1  0
 17 18  1  0
 18 19  1  0
 19 28  1  0
 19 20  2  0
 20 21  1  0
 21 22  2  0
 22 27  1  0
 22 23  1  0
 23 24  2  0
 24 25  1  0
 25 26  2  0
 26 27  1  0
 27 28  2  0
 16 29  1  0
 29 30  2  0
M  END
>  <SMILES>  (587) 
Cn1cc(-c2ccncc2)c(-c2ccc(OCc3ccc4ccccc4n3)cc2)n1

>  <CollectionName>  (587) 
chembl

>  <LOG PLASMA PROTEIN BINDING (RAT) (% unbound)>  (587) 
-0.769551078622

>  <Internal ID>  (587) 


>  <Source>  (587) 
AstraZeneca

$$$$
CHEMBL562551
     RDKit          2D

 18 19  0  0  0  0  0  0  0  0999 V2000
    4.3611    6.4873    0.0000 C   0  0  0  0  0  0  0  0  0  0  0  0
    3.4906    5.9950    0.0000 O   0  0  0  0  0  0  0  0  0  0  0  0
    3.4818    4.9950    0.0000 C   0  0  0  0  0  0  0  0  0  0  0  0
    2.6054    4.5027    0.0000 C   0  0  0  0  0  0  0  0  0  0  0  0
    2.6054    3.4976    0.0000 C   0  0  0  0  0  0  0  0  0  0  0  0
    1.7379    3.0001    0.0000 N   0  0  0  0  0  0  0  0  0  0  0  0
    1.7350    2.0001    0.0000 C   0  0  0  0  0  0  0  0  0  0  0  0
    2.5995    1.4976    0.0000 O   0  0  0  0  0  0  0  0  0  0  0  0
    0.8675    1.5027    0.0000 C   0  0  0  0  0  0  0  0  0  0  0  0
    0.8675    0.4975    0.0000 C   0  0  0  0  0  0  0  0  0  0  0  0
    0.0000    0.0000    0.0000 C   0  0  0  0  0  0  0  0  0  0  0  0
   -0.8675    0.4975    0.0000 C   0  0  0  0  0  0  0  0  0  0  0  0
   -0.8675    1.5027    0.0000 C   0  0  0  0  0  0  0  0  0  0  0  0
   -0.0000    2.0104    0.0000 N   0  0  0  0  0  0  0  0  0  0  0  0
    3.4730    2.9899    0.0000 C   0  0  0  0  0  0  0  0  0  0  0  0
    4.3405    3.4873    0.0000 C   0  0  0  0  0  0  0  0  0  0  0  0
    4.3493    4.4873    0.0000 C   0  0  0  0  0  0  0  0  0  0  0  0
    5.2190    4.9809    0.0000 Cl  0  0  0  0  0  0  0  0  0  0  0  0
  1  2  1  0
  2  3  1  0
  3 17  2  0
  3  4  1  0
  4  5  2  0
  5  6  1  0
  6  7  1  0
  7  8  2  0
  7  9  1  0
  9 14  1  0
  9 10  2  0
 10 11  1  0
 11 12  2  0
 12 13  1  0
 13 14  2  0
  5 15  1  0
 15 16  2  0
 16 17  1  0
 17 18  1  0
M  END
>  <SMILES>  (588) 
COc1cc(NC(=O)c2ccccn2)ccc1Cl

>  <CollectionName>  (588) 
chembl

>  <LOG PLASMA PROTEIN BINDING (RAT) (% unbound)>  (588) 
0.650307523132

>  <Internal ID>  (588) 


>  <Source>  (588) 
AstraZeneca

$$$$
CHEMBL570002
     RDKit          2D

 25 27  0  0  1  0  0  0  0  0999 V2000
    3.4670    1.0001    0.0000 C   0  0  0  0  0  0  0  0  0  0  0  0
    2.6025    1.5026    0.0000 C   0  0  0  0  0  0  0  0  0  0  0  0
    2.6054    2.5026    0.0000 N   0  0  0  0  0  0  0  0  0  0  0  0
    3.4729    3.0001    0.0000 C   0  0  0  0  0  0  0  0  0  0  0  0
    4.3404    2.4924    0.0000 N   0  0  0  0  0  0  0  0  0  0  0  0
    5.2079    3.0001    0.0000 C   0  0  0  0  0  0  0  0  0  0  0  0
    6.0754    2.5026    0.0000 N   0  0  0  0  0  0  0  0  0  0  0  0
    6.0784    1.5026    0.0000 C   0  0  0  0  0  0  0  0  0  0  0  0
    5.2693    0.9150    0.0000 C   0  0  0  0  0  0  0  0  0  0  0  0
    5.5811   -0.0367    0.0000 C   0  0  0  0  0  0  0  0  0  0  0  0
    4.9944   -0.8465    0.0000 C   0  0  0  0  0  0  0  0  0  0  0  0
    6.5828   -0.0366    0.0000 N   0  0  0  0  0  0  0  0  0  0  0  0
    6.8913    0.9195    0.0000 N   0  0  0  0  0  0  0  0  0  0  0  0
    5.2079    4.0053    0.0000 C   0  0  0  0  0  0  0  0  0  0  0  0
    4.3404    4.5028    0.0000 N   0  0  0  0  0  0  0  0  0  0  0  0
    3.4729    4.0053    0.0000 C   0  0  0  0  0  0  0  0  0  0  0  0
    2.6076    4.5065    0.0000 C   0  0  0  0  0  0  0  0  0  0  0  0
    1.7423    5.0078    0.0000 N   0  0  0  0  0  0  0  0  0  0  0  0
    1.7350    1.0052    0.0000 C   0  0  0  0  0  0  0  0  0  0  0  0
    0.8675    1.5129    0.0000 N   0  0  0  0  0  0  0  0  0  0  0  0
    0.0000    1.0052    0.0000 C   0  0  0  0  0  0  0  0  0  0  0  0
    0.0000    0.0000    0.0000 C   0  0  0  0  0  0  0  0  0  0  0  0
   -0.8653   -0.5013    0.0000 F   0  0  0  0  0  0  0  0  0  0  0  0
    0.8675   -0.4975    0.0000 C   0  0  0  0  0  0  0  0  0  0  0  0
    1.7350    0.0000    0.0000 N   0  0  0  0  0  0  0  0  0  0  0  0
  2  1  1  1
  2  3  1  0
  3  4  1  0
  4 16  1  0
  4  5  2  0
  5  6  1  0
  6  7  1  0
  7  8  1  0
  8 13  2  0
  8  9  1  0
  9 10  2  0
 10 11  1  0
 10 12  1  0
 12 13  1  0
  6 14  2  0
 14 15  1  0
 15 16  2  0
 16 17  1  0
 17 18  3  0
  2 19  1  0
 19 25  1  0
 19 20  2  0
 20 21  1  0
 21 22  2  0
 22 23  1  0
 22 24  1  0
 24 25  2  0
M  END
>  <SMILES>  (589) 
Cc1cc(Nc2cnc(C#N)c(N[C@@H](C)c3ncc(F)cn3)n2)n[nH]1

>  <CollectionName>  (589) 
chembl

>  <LOG PLASMA PROTEIN BINDING (RAT) (% unbound)>  (589) 
1.57518784493

>  <Internal ID>  (589) 


>  <Source>  (589) 
AstraZeneca

$$$$
CHEMBL1916281
     RDKit          2D

 32 34  0  0  1  0  0  0  0  0999 V2000
   -2.2082   -3.0309    0.0000 C   0  0  0  0  0  0  0  0  0  0  0  0
   -2.6137   -2.1168    0.0000 C   0  0  0  0  0  0  0  0  0  0  0  0
   -2.0249   -1.3086    0.0000 N   0  0  0  0  0  0  0  0  0  0  0  0
   -1.0305   -1.4144    0.0000 C   0  0  0  0  0  0  0  0  0  0  0  0
   -0.6250   -2.3285    0.0000 O   0  0  0  0  0  0  0  0  0  0  0  0
    0.0000    0.0000    0.0000 C   0  0  0  0  0  0  0  0  0  0  0  0
   -0.3065    0.9519    0.0000 C   0  0  0  0  0  0  0  0  0  0  0  0
   -1.2577    1.2605    0.0000 C   0  0  0  0  0  0  0  0  0  0  0  0
    0.5008    1.5428    0.0000 N   0  0  0  0  0  0  0  0  0  0  0  0
    1.3133    0.9519    0.0000 N   0  0  0  0  0  0  0  0  0  0  0  0
    1.0015   -0.0000    0.0000 C   0  0  0  0  0  0  0  0  0  0  0  0
    2.0284   -1.4170    0.0000 N   0  0  0  0  0  0  0  0  0  0  0  0
    1.6206   -2.3301    0.0000 S   0  0  0  0  0  0  0  0  0  0  0  0
    2.5337   -2.7379    0.0000 O   0  0  0  0  0  0  0  0  0  0  0  0
    0.7076   -1.9222    0.0000 O   0  0  0  0  0  0  0  0  0  0  0  0
    1.2128   -3.2431    0.0000 C   0  0  0  0  0  0  0  0  0  0  0  0
    0.2127   -3.3441    0.0000 C   0  0  0  0  0  0  0  0  0  0  0  0
   -0.1952   -4.2571    0.0000 C   0  0  0  0  0  0  0  0  0  0  0  0
    0.3869   -5.0703    0.0000 C   0  0  0  0  0  0  0  0  0  0  0  0
   -0.0250   -5.9815    0.0000 C   0  0  0  0  0  0  0  0  0  0  0  0
    1.3870   -4.9694    0.0000 C   0  0  0  0  0  0  0  0  0  0  0  0
    1.8050   -4.0553    0.0000 C   0  0  0  0  0  0  0  0  0  0  0  0
    2.2648    1.2596    0.0000 C   0  0  0  0  0  0  0  0  0  0  0  0
    2.4723    2.2431    0.0000 C   0  0  0  0  0  0  0  0  0  0  0  0
    3.4238    2.5508    0.0000 C   0  0  0  0  0  0  0  0  0  0  0  0
    4.1699    1.8850    0.0000 C   0  0  0  0  0  0  0  0  0  0  0  0
    3.9624    0.9014    0.0000 C   0  0  0  0  0  0  0  0  0  0  0  0
    3.0088    0.5837    0.0000 C   0  0  0  0  0  0  0  0  0  0  0  0
   -3.6081   -2.0110    0.0000 C   0  0  0  0  0  0  0  0  0  0  0  0
   -4.6025   -1.9051    0.0000 C   0  0  0  0  0  0  0  0  0  0  0  0
   -3.5023   -1.0166    0.0000 C   0  0  0  0  0  0  0  0  0  0  0  0
   -3.7140   -3.0053    0.0000 C   0  0  0  0  0  0  0  0  0  0  0  0
  1  2  1  0
  2  3  1  0
  3  4  1  0
  4  5  2  0
  4  6  1  0
  6 11  2  0
  6  7  1  0
  7  8  1  0
  7  9  2  0
  9 10  1  0
 10 11  1  0
 11 12  1  0
 12 13  1  0
 13 14  2  0
 13 15  2  0
 13 16  1  0
 16 22  1  0
 16 17  2  0
 17 18  1  0
 18 19  2  0
 19 20  1  0
 19 21  1  0
 21 22  2  0
 10 23  1  0
 23 28  1  0
 23 24  2  0
 24 25  1  0
 25 26  2  0
 26 27  1  0
 27 28  2  0
  2 29  1  0
 29 30  1  0
 29 31  1  0
 29 32  1  0
M  END
>  <SMILES>  (590) 
Cc1ccc(S(=O)(=O)Nc2c(C(=O)NC(C)C(C)(C)C)c(C)nn2-c2ccccc2)cc1

>  <CollectionName>  (590) 
chembl

>  <LOG PLASMA PROTEIN BINDING (RAT) (% unbound)>  (590) 
0.65991620007

>  <Internal ID>  (590) 


>  <Source>  (590) 
AstraZeneca

$$$$
CHEMBL1917440
     RDKit          2D

 28 31  0  0  0  0  0  0  0  0999 V2000
    4.2858    0.5024    0.0000 C   0  0  0  0  0  0  0  0  0  0  0  0
    3.2858    0.5023    0.0000 C   0  0  0  0  0  0  0  0  0  0  0  0
    2.6938   -0.3125    0.0000 C   0  0  0  0  0  0  0  0  0  0  0  0
    3.0028   -1.2636    0.0000 S   0  0  0  0  0  0  0  0  0  0  0  0
    3.9809   -1.4715    0.0000 C   0  0  0  0  0  0  0  0  0  0  0  0
    4.6512   -0.7294    0.0000 C   0  0  0  0  0  0  0  0  0  0  0  0
    5.6302   -0.9331    0.0000 C   0  0  0  0  0  0  0  0  0  0  0  0
    5.9422   -1.8886    0.0000 C   0  0  0  0  0  0  0  0  0  0  0  0
    6.9212   -2.0923    0.0000 Cl  0  0  0  0  0  0  0  0  0  0  0  0
    5.2751   -2.6405    0.0000 C   0  0  0  0  0  0  0  0  0  0  0  0
    4.2929   -2.4271    0.0000 C   0  0  0  0  0  0  0  0  0  0  0  0
    1.7360   -0.0012    0.0000 C   0  0  0  0  0  0  0  0  0  0  0  0
    0.8680   -0.4978    0.0000 C   0  0  0  0  0  0  0  0  0  0  0  0
    0.0000    0.0000    0.0000 C   0  0  0  0  0  0  0  0  0  0  0  0
    0.0000    1.0058    0.0000 C   0  0  0  0  0  0  0  0  0  0  0  0
    0.8680    1.5138    0.0000 C   0  0  0  0  0  0  0  0  0  0  0  0
    1.7360    1.0058    0.0000 C   0  0  0  0  0  0  0  0  0  0  0  0
    2.6938    1.3169    0.0000 N   0  0  0  0  0  0  0  0  0  0  0  0
    3.0028    2.2680    0.0000 C   0  0  0  0  0  0  0  0  0  0  0  0
    3.9810    2.4759    0.0000 C   0  0  0  0  0  0  0  0  0  0  0  0
    4.6501    1.7327    0.0000 O   0  0  0  0  0  0  0  0  0  0  0  0
    4.2900    3.4269    0.0000 O   0  0  0  0  0  0  0  0  0  0  0  0
    0.8675   -1.4978    0.0000 C   0  0  0  0  0  0  0  0  0  0  0  0
    1.7392   -1.9983    0.0000 C   0  0  0  0  0  0  0  0  0  0  0  0
    1.7388   -2.9983    0.0000 N   0  0  0  0  0  0  0  0  0  0  0  0
    0.8754   -3.5029    0.0000 C   0  0  0  0  0  0  0  0  0  0  0  0
    0.0036   -3.0025    0.0000 C   0  0  0  0  0  0  0  0  0  0  0  0
   -0.0047   -1.9973    0.0000 N   0  0  0  0  0  0  0  0  0  0  0  0
  1  2  1  0
  2 18  1  0
  2  3  2  0
  3  4  1  0
  4  5  1  0
  5 11  1  0
  5  6  2  0
  6  7  1  0
  7  8  2  0
  8  9  1  0
  8 10  1  0
 10 11  2  0
  3 12  1  0
 12 17  2  0
 12 13  1  0
 13 14  2  0
 14 15  1  0
 15 16  2  0
 16 17  1  0
 17 18  1  0
 18 19  1  0
 19 20  1  0
 20 21  2  0
 20 22  1  0
 13 23  1  0
 23 28  1  0
 23 24  2  0
 24 25  1  0
 25 26  2  0
 26 27  1  0
 27 28  2  0
M  END
>  <SMILES>  (591) 
Cc1c(Sc2ccc(Cl)cc2)c2c(-c3cnccn3)cccc2n1CC(=O)O

>  <CollectionName>  (591) 
chembl

>  <LOG PLASMA PROTEIN BINDING (RAT) (% unbound)>  (591) 
0.380211241712

>  <Internal ID>  (591) 


>  <Source>  (591) 
AstraZeneca

$$$$
CHEMBL1924032
     RDKit          2D

 27 29  0  0  1  0  0  0  0  0999 V2000
    0.8660   -3.5000    0.0000 C   0  0  0  0  0  0  0  0  0  0  0  0
    0.8660   -2.5000    0.0000 C   0  0  0  0  0  0  0  0  0  0  0  0
    2.6160   -2.5000    0.0000 N   0  0  0  0  0  0  0  0  0  0  0  0
    3.1237   -3.3675    0.0000 C   0  0  0  0  0  0  0  0  0  0  0  0
    4.1289   -3.3675    0.0000 C   0  0  0  0  0  0  0  0  0  0  0  0
    4.6264   -2.5000    0.0000 C   0  0  0  0  0  0  0  0  0  0  0  0
    5.3931   -1.8580    0.0000 F   0  0  0  0  0  0  0  0  0  0  0  0
    5.3931   -3.1420    0.0000 F   0  0  0  0  0  0  0  0  0  0  0  0
    4.1289   -1.6325    0.0000 C   0  0  0  0  0  0  0  0  0  0  0  0
    3.1237   -1.6325    0.0000 C   0  0  0  0  0  0  0  0  0  0  0  0
    0.8660   -1.5000    0.0000 C   0  0  0  0  0  0  0  0  0  0  0  0
    1.7321   -1.0000    0.0000 O   0  0  0  0  0  0  0  0  0  0  0  0
    0.0000   -1.0000    0.0000 O   0  0  0  0  0  0  0  0  0  0  0  0
    0.0000    0.0000    0.0000 C   0  0  0  0  0  0  0  0  0  0  0  0
   -0.8675    0.4975    0.0000 C   0  0  0  0  0  0  0  0  0  0  0  0
   -0.8675    1.5027    0.0000 C   0  0  0  0  0  0  0  0  0  0  0  0
   -0.0000    2.0104    0.0000 N   0  0  0  0  0  0  0  0  0  0  0  0
   -0.6443    2.7752    0.0000 C   0  0  0  0  0  0  0  0  0  0  0  0
    0.6443    2.7752    0.0000 C   0  0  0  0  0  0  0  0  0  0  0  0
    0.8675    1.5027    0.0000 C   0  0  0  0  0  0  0  0  0  0  0  0
    0.8675    0.4975    0.0000 C   0  0  0  0  0  0  0  0  0  0  0  0
   -0.8840   -2.5000    0.0000 C   0  0  0  0  0  0  0  0  0  0  0  0
   -1.3840   -3.3720    0.0000 C   0  0  0  0  0  0  0  0  0  0  0  0
   -2.3840   -3.3721    0.0000 C   0  0  0  0  0  0  0  0  0  0  0  0
   -2.8891   -2.5089    0.0000 C   0  0  0  0  0  0  0  0  0  0  0  0
   -2.3891   -1.6369    0.0000 C   0  0  0  0  0  0  0  0  0  0  0  0
   -1.3840   -1.6280    0.0000 C   0  0  0  0  0  0  0  0  0  0  0  0
  1  2  1  0
  2  3  1  0
  3 10  1  0
  3  4  1  0
  4  5  1  0
  5  6  1  0
  6  7  1  0
  6  8  1  0
  6  9  1  0
  9 10  1  0
  2 11  1  0
 11 12  2  0
 11 13  1  0
 13 14  1  0
 14 21  1  0
 14 15  1  0
 15 16  1  0
 16 17  1  0
 17 18  1  0
 17 19  1  0
 17 20  1  0
 20 21  1  0
  2 22  1  0
 22 27  1  0
 22 23  2  0
 23 24  1  0
 24 25  2  0
 25 26  1  0
 26 27  2  0
M  CHG  1  17   1
M  END
>  <SMILES>  (592) 
CC(C(=O)OC1CC[N+](C)(C)CC1)(c1ccccc1)N1CCC(F)(F)CC1

>  <CollectionName>  (592) 
chembl

>  <LOG PLASMA PROTEIN BINDING (RAT) (% unbound)>  (592) 
1.79518458968

>  <Internal ID>  (592) 


>  <Source>  (592) 
AstraZeneca

$$$$
CHEMBL1934422
     RDKit          2D

 32 34  0  0  1  0  0  0  0  0999 V2000
   -2.2082   -3.0309    0.0000 C   0  0  0  0  0  0  0  0  0  0  0  0
   -2.6137   -2.1168    0.0000 C   0  0  0  0  0  0  0  0  0  0  0  0
   -2.0249   -1.3086    0.0000 N   0  0  0  0  0  0  0  0  0  0  0  0
   -1.0305   -1.4144    0.0000 C   0  0  0  0  0  0  0  0  0  0  0  0
   -0.6250   -2.3285    0.0000 O   0  0  0  0  0  0  0  0  0  0  0  0
    0.0000    0.0000    0.0000 C   0  0  0  0  0  0  0  0  0  0  0  0
   -0.3065    0.9519    0.0000 C   0  0  0  0  0  0  0  0  0  0  0  0
   -1.2577    1.2605    0.0000 C   0  0  0  0  0  0  0  0  0  0  0  0
    0.5008    1.5428    0.0000 N   0  0  0  0  0  0  0  0  0  0  0  0
    1.3133    0.9519    0.0000 N   0  0  0  0  0  0  0  0  0  0  0  0
    2.2648    1.2596    0.0000 C   0  0  0  0  0  0  0  0  0  0  0  0
    2.4713    2.2380    0.0000 C   0  0  0  0  0  0  0  0  0  0  0  0
    3.4277    2.5473    0.0000 C   0  0  0  0  0  0  0  0  0  0  0  0
    4.1777    1.8781    0.0000 O   0  0  0  0  0  0  0  0  0  0  0  0
    3.9615    0.8965    0.0000 C   0  0  0  0  0  0  0  0  0  0  0  0
    3.0051    0.5872    0.0000 C   0  0  0  0  0  0  0  0  0  0  0  0
    1.0015   -0.0000    0.0000 C   0  0  0  0  0  0  0  0  0  0  0  0
    2.0284   -1.4170    0.0000 N   0  0  0  0  0  0  0  0  0  0  0  0
    1.6206   -2.3301    0.0000 S   0  0  0  0  0  0  0  0  0  0  0  0
    2.5337   -2.7379    0.0000 O   0  0  0  0  0  0  0  0  0  0  0  0
    0.7076   -1.9222    0.0000 O   0  0  0  0  0  0  0  0  0  0  0  0
    1.2128   -3.2431    0.0000 C   0  0  0  0  0  0  0  0  0  0  0  0
    0.2127   -3.3441    0.0000 C   0  0  0  0  0  0  0  0  0  0  0  0
   -0.1952   -4.2571    0.0000 C   0  0  0  0  0  0  0  0  0  0  0  0
    0.3869   -5.0703    0.0000 C   0  0  0  0  0  0  0  0  0  0  0  0
   -0.0250   -5.9815    0.0000 C   0  0  0  0  0  0  0  0  0  0  0  0
    1.3870   -4.9694    0.0000 C   0  0  0  0  0  0  0  0  0  0  0  0
    1.8050   -4.0553    0.0000 C   0  0  0  0  0  0  0  0  0  0  0  0
   -3.6081   -2.0110    0.0000 C   0  0  0  0  0  0  0  0  0  0  0  0
   -4.6025   -1.9051    0.0000 C   0  0  0  0  0  0  0  0  0  0  0  0
   -3.5023   -1.0166    0.0000 C   0  0  0  0  0  0  0  0  0  0  0  0
   -3.7140   -3.0053    0.0000 C   0  0  0  0  0  0  0  0  0  0  0  0
  2  1  1  1
  2  3  1  0
  3  4  1  0
  4  5  2  0
  4  6  1  0
  6 17  2  0
  6  7  1  0
  7  8  1  0
  7  9  2  0
  9 10  1  0
 10 11  1  0
 11 16  1  0
 11 12  1  0
 12 13  1  0
 13 14  1  0
 14 15  1  0
 15 16  1  0
 10 17  1  0
 17 18  1  0
 18 19  1  0
 19 20  2  0
 19 21  2  0
 19 22  1  0
 22 28  1  0
 22 23  2  0
 23 24  1  0
 24 25  2  0
 25 26  1  0
 25 27  1  0
 27 28  2  0
  2 29  1  0
 29 30  1  0
 29 31  1  0
 29 32  1  0
M  END
>  <SMILES>  (593) 
Cc1ccc(S(=O)(=O)Nc2c(C(=O)N[C@@H](C)C(C)(C)C)c(C)nn2C2CCOCC2)cc1

>  <CollectionName>  (593) 
chembl

>  <LOG PLASMA PROTEIN BINDING (RAT) (% unbound)>  (593) 
1.22089224922

>  <Internal ID>  (593) 


>  <Source>  (593) 
AstraZeneca

$$$$
CHEMBL158
     RDKit          2D

 28 29  0  0  1  0  0  0  0  0999 V2000
    1.4804   -3.3987    0.0000 C   0  0  0  0  0  0  0  0  0  0  0  0
    0.5664   -3.8042    0.0000 C   0  0  0  0  0  0  0  0  0  0  0  0
   -0.3667   -3.4446    0.0000 C   0  0  0  0  0  0  0  0  0  0  0  0
   -0.7722   -2.5306    0.0000 N   0  0  0  0  0  0  0  0  0  0  0  0
   -0.1833   -1.7223    0.0000 C   0  0  0  0  0  0  0  0  0  0  0  0
    0.8110   -1.8282    0.0000 O   0  0  0  0  0  0  0  0  0  0  0  0
   -0.5889   -0.8082    0.0000 C   0  0  0  0  0  0  0  0  0  0  0  0
   -1.5832   -0.7024    0.0000 N   0  0  0  0  0  0  0  0  0  0  0  0
   -2.1721   -1.5106    0.0000 O   0  0  0  0  0  0  0  0  0  0  0  0
   -3.1665   -1.4048    0.0000 C   0  0  0  0  0  0  0  0  0  0  0  0
   -3.2723   -2.3992    0.0000 C   0  0  0  0  0  0  0  0  0  0  0  0
   -3.0606   -0.4104    0.0000 C   0  0  0  0  0  0  0  0  0  0  0  0
   -4.1609   -1.2989    0.0000 C   0  0  0  0  0  0  0  0  0  0  0  0
   -4.5664   -0.3848    0.0000 O   0  0  0  0  0  0  0  0  0  0  0  0
   -4.7497   -2.1072    0.0000 O   0  0  0  0  0  0  0  0  0  0  0  0
    0.0000    0.0000    0.0000 C   0  0  0  0  0  0  0  0  0  0  0  0
   -0.3065    0.9519    0.0000 C   0  0  0  0  0  0  0  0  0  0  0  0
    0.5008    1.5428    0.0000 S   0  0  0  0  0  0  0  0  0  0  0  0
    1.3133    0.9519    0.0000 C   0  0  0  0  0  0  0  0  0  0  0  0
    2.2648    1.2596    0.0000 N   0  0  0  0  0  0  0  0  0  0  0  0
    1.0015   -0.0000    0.0000 N   0  0  0  0  0  0  0  0  0  0  0  0
   -0.7262   -4.3777    0.0000 C   0  0  0  0  0  0  0  0  0  0  0  0
   -1.6403   -4.7832    0.0000 O   0  0  0  0  0  0  0  0  0  0  0  0
    0.2068   -4.7372    0.0000 N   0  0  0  0  0  0  0  0  0  0  0  0
    0.6123   -5.6513    0.0000 S   0  0  0  0  0  0  0  0  0  0  0  0
    1.5264   -5.2458    0.0000 O   0  0  0  0  0  0  0  0  0  0  0  0
   -0.3018   -6.0568    0.0000 O   0  0  0  0  0  0  0  0  0  0  0  0
    1.0178   -6.5654    0.0000 O   0  0  0  0  0  0  0  0  0  0  0  0
  2  1  1  6
  2 24  1  0
  2  3  1  0
  3  4  1  1
  4  5  1  0
  5  6  2  0
  5  7  1  0
  7  8  2  0
  8  9  1  0
  9 10  1  0
 10 11  1  0
 10 12  1  0
 10 13  1  0
 13 14  2  0
 13 15  1  0
  7 16  1  0
 16 21  1  0
 16 17  2  0
 17 18  1  0
 18 19  1  0
 19 20  1  0
 19 21  2  0
  3 22  1  0
 22 23  2  0
 22 24  1  0
 24 25  1  0
 25 26  2  0
 25 27  2  0
 25 28  1  0
M  END
>  <SMILES>  (594) 
C[C@H]1[C@H](NC(=O)/C(=N\OC(C)(C)C(=O)O)c2csc(N)n2)C(=O)N1S(=O)(=O)O

>  <CollectionName>  (594) 
chembl

>  <LOG PLASMA PROTEIN BINDING (RAT) (% unbound)>  (594) 
1.26221370548

>  <Internal ID>  (594) 


>  <Source>  (594) 
AstraZeneca

$$$$
CHEMBL1464
     RDKit          2D

 23 25  0  0  1  0  0  0  0  0999 V2000
    6.9402   -0.0129    0.0000 C   0  0  0  0  0  0  0  0  0  0  0  0
    6.0728   -0.5105    0.0000 C   0  0  0  0  0  0  0  0  0  0  0  0
    6.0702   -1.5105    0.0000 O   0  0  0  0  0  0  0  0  0  0  0  0
    5.2081   -0.0082    0.0000 C   0  0  0  0  0  0  0  0  0  0  0  0
    4.3408   -0.5059    0.0000 C   0  0  0  0  0  0  0  0  0  0  0  0
    3.4761   -0.0036    0.0000 C   0  0  0  0  0  0  0  0  0  0  0  0
    2.6026   -0.5032    0.0000 C   0  0  0  0  0  0  0  0  0  0  0  0
    2.5998   -1.5032    0.0000 O   0  0  0  0  0  0  0  0  0  0  0  0
    1.7360   -0.0012    0.0000 C   0  0  0  0  0  0  0  0  0  0  0  0
    0.8680   -0.4978    0.0000 C   0  0  0  0  0  0  0  0  0  0  0  0
    0.0000    0.0000    0.0000 C   0  0  0  0  0  0  0  0  0  0  0  0
    0.0000    1.0057    0.0000 C   0  0  0  0  0  0  0  0  0  0  0  0
    0.8680    1.5138    0.0000 C   0  0  0  0  0  0  0  0  0  0  0  0
    1.7374    1.0057    0.0000 C   0  0  0  0  0  0  0  0  0  0  0  0
    2.6052    1.5109    0.0000 O   0  0  0  0  0  0  0  0  0  0  0  0
    3.4774    1.0034    0.0000 C   0  0  0  0  0  0  0  0  0  0  0  0
    4.3446    1.5014    0.0000 O   0  0  0  0  0  0  0  0  0  0  0  0
    4.3381   -1.5059    0.0000 C   0  0  0  0  0  0  0  0  0  0  0  0
    5.2088   -2.0083    0.0000 C   0  0  0  0  0  0  0  0  0  0  0  0
    5.2062   -3.0083    0.0000 C   0  0  0  0  0  0  0  0  0  0  0  0
    4.3417   -3.5111    0.0000 C   0  0  0  0  0  0  0  0  0  0  0  0
    3.4710   -3.0087    0.0000 C   0  0  0  0  0  0  0  0  0  0  0  0
    3.4648   -2.0036    0.0000 C   0  0  0  0  0  0  0  0  0  0  0  0
  1  2  1  0
  2  3  2  0
  2  4  1  0
  4  5  1  0
  5  6  1  0
  6 16  1  0
  6  7  2  0
  7  8  1  0
  7  9  1  0
  9 14  2  0
  9 10  1  0
 10 11  2  0
 11 12  1  0
 12 13  2  0
 13 14  1  0
 14 15  1  0
 15 16  1  0
 16 17  2  0
  5 18  1  0
 18 23  1  0
 18 19  2  0
 19 20  1  0
 20 21  2  0
 21 22  1  0
 22 23  2  0
M  END
>  <SMILES>  (595) 
CC(=O)CC(c1ccccc1)c1c(O)c2ccccc2oc1=O

>  <CollectionName>  (595) 
chembl

>  <LOG PLASMA PROTEIN BINDING (RAT) (% unbound)>  (595) 
-0.10237290871

>  <Internal ID>  (595) 


>  <Source>  (595) 
AstraZeneca

$$$$
CHEMBL1473
     RDKit          2D

 34 37  0  0  1  0  0  0  0  0999 V2000
    8.9593    4.7801    0.0000 C   0  0  0  0  0  0  0  0  0  0  0  0
    7.9748    4.9556    0.0000 C   0  0  0  0  0  0  0  0  0  0  0  0
    7.3306    4.1908    0.0000 C   0  0  0  0  0  0  0  0  0  0  0  0
    7.6708    3.2505    0.0000 O   0  0  0  0  0  0  0  0  0  0  0  0
    6.3461    4.3663    0.0000 O   0  0  0  0  0  0  0  0  0  0  0  0
    5.2187    3.0279    0.0000 C   0  0  0  0  0  0  0  0  0  0  0  0
    6.0928    2.5162    0.0000 C   0  0  0  0  0  0  0  0  0  0  0  0
    6.9606    3.0130    0.0000 C   0  0  0  0  0  0  0  0  0  0  0  0
    6.0915    1.5061    0.0000 C   0  0  0  0  0  0  0  0  0  0  0  0
    4.3477    1.5084    0.0000 C   0  0  0  0  0  0  0  0  0  0  0  0
    3.4759    1.0071    0.0000 C   0  0  0  0  0  0  0  0  0  0  0  0
    3.4748    0.0023    0.0000 C   0  0  0  0  0  0  0  0  0  0  0  0
    2.6037   -0.4989    0.0000 C   0  0  0  0  0  0  0  0  0  0  0  0
    2.6036   -1.4989    0.0000 F   0  0  0  0  0  0  0  0  0  0  0  0
    1.7371   -0.0000    0.0000 C   0  0  0  0  0  0  0  0  0  0  0  0
    0.8679   -0.4977    0.0000 C   0  0  0  0  0  0  0  0  0  0  0  0
    0.0000    0.0000    0.0000 C   0  0  0  0  0  0  0  0  0  0  0  0
   -0.8653   -0.5013    0.0000 O   0  0  0  0  0  0  0  0  0  0  0  0
    0.0000    1.0056    0.0000 C   0  0  0  0  0  0  0  0  0  0  0  0
    0.8679    1.5135    0.0000 C   0  0  0  0  0  0  0  0  0  0  0  0
    1.7358    1.0056    0.0000 C   0  0  0  0  0  0  0  0  0  0  0  0
    1.7357    2.0056    0.0000 C   0  0  0  0  0  0  0  0  0  0  0  0
    2.6012    1.5123    0.0000 C   0  0  0  0  0  0  0  0  0  0  0  0
    2.6042    0.5123    0.0000 F   0  0  0  0  0  0  0  0  0  0  0  0
    2.5967    2.5196    0.0000 C   0  0  0  0  0  0  0  0  0  0  0  0
    1.7301    3.0186    0.0000 O   0  0  0  0  0  0  0  0  0  0  0  0
    3.4743    3.0237    0.0000 C   0  0  0  0  0  0  0  0  0  0  0  0
    4.3490    2.5184    0.0000 C   0  0  0  0  0  0  0  0  0  0  0  0
    5.2163    2.0206    0.0000 C   0  0  0  0  0  0  0  0  0  0  0  0
    4.0908    4.3660    0.0000 C   0  0  0  0  0  0  0  0  0  0  0  0
    3.1064    4.1901    0.0000 O   0  0  0  0  0  0  0  0  0  0  0  0
    4.4308    5.3064    0.0000 S   0  0  0  0  0  0  0  0  0  0  0  0
    3.7863    6.0710    0.0000 C   0  0  0  0  0  0  0  0  0  0  0  0
    4.1262    7.0115    0.0000 F   0  0  0  0  0  0  0  0  0  0  0  0
  1  2  1  0
  2  3  1  0
  3  4  2  0
  3  5  1  0
  6  5  1  6
  6 28  1  0
  6  7  1  0
  7  8  1  6
  7  9  1  0
 10  9  1  1
 10 28  1  0
 10 11  1  0
 11 23  1  0
 11 12  1  6
 12 13  1  0
 13 14  1  6
 13 15  1  0
 15 21  1  0
 15 16  2  0
 16 17  1  0
 17 18  2  0
 17 19  1  0
 19 20  2  0
 20 21  1  0
 21 22  1  1
 21 23  1  0
 23 24  1  6
 23 25  1  0
 25 26  1  1
 25 27  1  0
 27 28  1  0
 28 29  1  1
  6 30  1  0
 30 31  2  0
 30 32  1  0
 32 33  1  0
 33 34  1  0
M  END
>  <SMILES>  (596) 
CCC(=O)O[C@]1(C(=O)SCF)[C@H](C)C[C@H]2[C@@H]3C[C@H](F)C4=CC(=O)C=C[C@]4(C)[C@@]3(F)[C@@H](O)C[C@@]21C

>  <CollectionName>  (596) 
chembl

>  <LOG PLASMA PROTEIN BINDING (RAT) (% unbound)>  (596) 
0.184691430818

>  <Internal ID>  (596) 


>  <Source>  (596) 
AstraZeneca

$$$$
CHEMBL538936
     RDKit          2D

 41 45  0  0  0  0  0  0  0  0999 V2000
   -3.3278    4.3360    0.0000 F   0  0  0  0  0  0  0  0  0  0  0  0
   -2.9119    5.2455    0.0000 C   0  0  0  0  0  0  0  0  0  0  0  0
   -3.4969    6.0629    0.0000 C   0  0  0  0  0  0  0  0  0  0  0  0
   -3.0810    6.9723    0.0000 C   0  0  0  0  0  0  0  0  0  0  0  0
   -2.0861    7.0726    0.0000 C   0  0  0  0  0  0  0  0  0  0  0  0
   -1.5010    6.2552    0.0000 C   0  0  0  0  0  0  0  0  0  0  0  0
   -1.9110    5.3375    0.0000 C   0  0  0  0  0  0  0  0  0  0  0  0
   -1.6742    7.9839    0.0000 C   0  0  0  0  0  0  0  0  0  0  0  0
   -0.6791    8.0828    0.0000 N   0  0  0  0  0  0  0  0  0  0  0  0
   -0.0959    7.2704    0.0000 C   0  0  0  0  0  0  0  0  0  0  0  0
   -0.5078    6.3592    0.0000 O   0  0  0  0  0  0  0  0  0  0  0  0
    0.8992    7.3693    0.0000 C   0  0  0  0  0  0  0  0  0  0  0  0
    1.4824    6.5570    0.0000 C   0  0  0  0  0  0  0  0  0  0  0  0
    2.4773    6.6587    0.0000 C   0  0  0  0  0  0  0  0  0  0  0  0
    3.0635    5.8422    0.0000 C   0  0  0  0  0  0  0  0  0  0  0  0
    2.6549    4.9238    0.0000 N   0  0  0  0  0  0  0  0  0  0  0  0
    3.2380    4.1115    0.0000 C   0  0  0  0  0  0  0  0  0  0  0  0
    2.8261    3.2003    0.0000 C   0  0  0  0  0  0  0  0  0  0  0  0
    3.3230    2.3307    0.0000 C   0  0  0  0  0  0  0  0  0  0  0  0
    2.6486    1.5924    0.0000 C   0  0  0  0  0  0  0  0  0  0  0  0
    1.7350    2.0001    0.0000 N   0  0  0  0  0  0  0  0  0  0  0  0
    1.8450    2.9988    0.0000 C   0  0  0  0  0  0  0  0  0  0  0  0
    0.8675    1.5027    0.0000 C   0  0  0  0  0  0  0  0  0  0  0  0
    0.8675    0.4975    0.0000 C   0  0  0  0  0  0  0  0  0  0  0  0
    0.0000    0.0000    0.0000 C   0  0  0  0  0  0  0  0  0  0  0  0
   -0.8675    0.4975    0.0000 C   0  0  0  0  0  0  0  0  0  0  0  0
   -0.8675    1.5027    0.0000 C   0  0  0  0  0  0  0  0  0  0  0  0
    0.0000    2.0104    0.0000 N   0  0  0  0  0  0  0  0  0  0  0  0
   -1.7328   -0.0038    0.0000 C   0  0  0  0  0  0  0  0  0  0  0  0
   -1.2315   -0.8691    0.0000 F   0  0  0  0  0  0  0  0  0  0  0  0
   -2.2341    0.8615    0.0000 F   0  0  0  0  0  0  0  0  0  0  0  0
   -2.5981   -0.5050    0.0000 F   0  0  0  0  0  0  0  0  0  0  0  0
    1.6541    4.8304    0.0000 C   0  0  0  0  0  0  0  0  0  0  0  0
    1.0679    5.6469    0.0000 C   0  0  0  0  0  0  0  0  0  0  0  0
   -2.2573    8.7962    0.0000 C   0  0  0  0  0  0  0  0  0  0  0  0
   -1.8467    9.7081    0.0000 C   0  0  0  0  0  0  0  0  0  0  0  0
   -2.4264   10.5230    0.0000 C   0  0  0  0  0  0  0  0  0  0  0  0
   -3.4268   10.4250    0.0000 C   0  0  0  0  0  0  0  0  0  0  0  0
   -4.0064   11.2399    0.0000 F   0  0  0  0  0  0  0  0  0  0  0  0
   -3.8476    9.5122    0.0000 C   0  0  0  0  0  0  0  0  0  0  0  0
   -3.2578    8.6983    0.0000 C   0  0  0  0  0  0  0  0  0  0  0  0
  1  2  1  0
  2  7  2  0
  2  3  1  0
  3  4  2  0
  4  5  1  0
  5  6  2  0
  6  7  1  0
  5  8  1  0
  8  9  1  0
  9 10  1  0
 10 11  2  0
 10 12  1  0
 12 13  1  0
 13 34  1  0
 13 14  1  0
 14 15  1  0
 15 16  1  0
 16 17  1  0
 17 18  1  0
 18 22  2  0
 18 19  1  0
 19 20  2  0
 20 21  1  0
 21 22  1  0
 21 23  1  0
 23 28  1  0
 23 24  2  0
 24 25  1  0
 25 26  2  0
 26 27  1  0
 27 28  2  0
 26 29  1  0
 29 30  1  0
 29 31  1  0
 29 32  1  0
 16 33  1  0
 33 34  1  0
  8 35  1  0
 35 41  1  0
 35 36  2  0
 36 37  1  0
 37 38  2  0
 38 39  1  0
 38 40  1  0
 40 41  2  0
M  END
>  <SMILES>  (597) 
O=C(CC1CCN(Cc2ccn(-c3ccc(C(F)(F)F)cn3)c2)CC1)NC(c1ccc(F)cc1)c1ccc(F)cc1

>  <CollectionName>  (597) 
chembl

>  <LOG PLASMA PROTEIN BINDING (RAT) (% unbound)>  (597) 
-0.481486060122

>  <Internal ID>  (597) 


>  <Source>  (597) 
AstraZeneca

$$$$
CHEMBL550410
     RDKit          2D

 34 37  0  0  0  0  0  0  0  0999 V2000
    3.4582   -6.0102    0.0000 F   0  0  0  0  0  0  0  0  0  0  0  0
    2.5951   -5.5051    0.0000 C   0  0  0  0  0  0  0  0  0  0  0  0
    1.7231   -6.0051    0.0000 C   0  0  0  0  0  0  0  0  0  0  0  0
    0.8600   -5.5001    0.0000 C   0  0  0  0  0  0  0  0  0  0  0  0
    0.8600   -4.5000    0.0000 C   0  0  0  0  0  0  0  0  0  0  0  0
    1.7321   -4.0000    0.0000 C   0  0  0  0  0  0  0  0  0  0  0  0
    1.7321   -3.0000    0.0000 C   0  0  0  0  0  0  0  0  0  0  0  0
    0.8660   -2.5000    0.0000 N   0  0  0  0  0  0  0  0  0  0  0  0
    0.8660   -1.5000    0.0000 C   0  0  0  0  0  0  0  0  0  0  0  0
    1.7321   -1.0000    0.0000 O   0  0  0  0  0  0  0  0  0  0  0  0
    0.0000   -1.0000    0.0000 N   0  0  0  0  0  0  0  0  0  0  0  0
    0.0000    0.0000    0.0000 C   0  0  0  0  0  0  0  0  0  0  0  0
   -0.8675    0.4975    0.0000 C   0  0  0  0  0  0  0  0  0  0  0  0
   -0.8675    1.5027    0.0000 C   0  0  0  0  0  0  0  0  0  0  0  0
   -0.0000    2.0104    0.0000 N   0  0  0  0  0  0  0  0  0  0  0  0
   -0.0000    3.0104    0.0000 C   0  0  0  0  0  0  0  0  0  0  0  0
    0.8660    3.5104    0.0000 C   0  0  0  0  0  0  0  0  0  0  0  0
    0.9695    4.5065    0.0000 C   0  0  0  0  0  0  0  0  0  0  0  0
    1.9480    4.7130    0.0000 C   0  0  0  0  0  0  0  0  0  0  0  0
    2.4523    3.8490    0.0000 N   0  0  0  0  0  0  0  0  0  0  0  0
    1.7806    3.1019    0.0000 C   0  0  0  0  0  0  0  0  0  0  0  0
    3.4471    3.7472    0.0000 C   0  0  0  0  0  0  0  0  0  0  0  0
    4.0333    4.5637    0.0000 C   0  0  0  0  0  0  0  0  0  0  0  0
    5.0282    4.4619    0.0000 C   0  0  0  0  0  0  0  0  0  0  0  0
    5.4427    3.5519    0.0000 C   0  0  0  0  0  0  0  0  0  0  0  0
    4.8565    2.7353    0.0000 C   0  0  0  0  0  0  0  0  0  0  0  0
    3.8557    2.8288    0.0000 C   0  0  0  0  0  0  0  0  0  0  0  0
    6.4380    3.4544    0.0000 C   0  0  0  0  0  0  0  0  0  0  0  0
    6.5354    4.4497    0.0000 F   0  0  0  0  0  0  0  0  0  0  0  0
    6.3405    2.4592    0.0000 F   0  0  0  0  0  0  0  0  0  0  0  0
    7.4332    3.3570    0.0000 F   0  0  0  0  0  0  0  0  0  0  0  0
    0.8675    1.5027    0.0000 C   0  0  0  0  0  0  0  0  0  0  0  0
    0.8675    0.4975    0.0000 C   0  0  0  0  0  0  0  0  0  0  0  0
    2.6040   -4.5000    0.0000 C   0  0  0  0  0  0  0  0  0  0  0  0
  1  2  1  0
  2 34  2  0
  2  3  1  0
  3  4  2  0
  4  5  1  0
  5  6  2  0
  6  7  1  0
  7  8  1  0
  8  9  1  0
  9 10  2  0
  9 11  1  0
 11 12  1  0
 12 33  1  0
 12 13  1  0
 13 14  1  0
 14 15  1  0
 15 16  1  0
 16 17  1  0
 17 21  2  0
 17 18  1  0
 18 19  2  0
 19 20  1  0
 20 21  1  0
 20 22  1  0
 22 27  1  0
 22 23  2  0
 23 24  1  0
 24 25  2  0
 25 26  1  0
 26 27  2  0
 25 28  1  0
 28 29  1  0
 28 30  1  0
 28 31  1  0
 15 32  1  0
 32 33  1  0
  6 34  1  0
M  END
>  <SMILES>  (598) 
O=C(NCc1cccc(F)c1)NC1CCN(Cc2ccn(-c3ccc(C(F)(F)F)cc3)c2)CC1

>  <CollectionName>  (598) 
chembl

>  <LOG PLASMA PROTEIN BINDING (RAT) (% unbound)>  (598) 
0.350248018334

>  <Internal ID>  (598) 


>  <Source>  (598) 
AstraZeneca

$$$$
CHEMBL551170
     RDKit          2D

 29 33  0  0  0  0  0  0  0  0999 V2000
    5.2161    2.9859    0.0000 Cl  0  0  0  0  0  0  0  0  0  0  0  0
    4.3464    2.4923    0.0000 C   0  0  0  0  0  0  0  0  0  0  0  0
    4.3376    1.4923    0.0000 C   0  0  0  0  0  0  0  0  0  0  0  0
    3.4700    0.9949    0.0000 C   0  0  0  0  0  0  0  0  0  0  0  0
    2.6025    1.5026    0.0000 C   0  0  0  0  0  0  0  0  0  0  0  0
    2.6025    2.5078    0.0000 C   0  0  0  0  0  0  0  0  0  0  0  0
    3.4788    3.0001    0.0000 C   0  0  0  0  0  0  0  0  0  0  0  0
    3.4877    4.0000    0.0000 C   0  0  0  0  0  0  0  0  0  0  0  0
    2.6261    4.5077    0.0000 O   0  0  0  0  0  0  0  0  0  0  0  0
    4.3581    4.4923    0.0000 N   0  0  0  0  0  0  0  0  0  0  0  0
    4.3670    5.4923    0.0000 C   0  0  0  0  0  0  0  0  0  0  0  0
    5.2374    5.9846    0.0000 C   0  0  0  0  0  0  0  0  0  0  0  0
    6.0138    5.3388    0.0000 C   0  0  0  0  0  0  0  0  0  0  0  0
    6.9165    5.8876    0.0000 C   0  0  0  0  0  0  0  0  0  0  0  0
    8.1269    5.6263    0.0000 C   0  0  0  0  0  0  0  0  0  0  0  0
    7.3249    6.3845    0.0000 C   0  0  0  0  0  0  0  0  0  0  0  0
    7.1512    7.4401    0.0000 C   0  0  0  0  0  0  0  0  0  0  0  0
    6.0068    7.5901    0.0000 C   0  0  0  0  0  0  0  0  0  0  0  0
    6.7254    6.8692    0.0000 C   0  0  0  0  0  0  0  0  0  0  0  0
    5.0752    7.0399    0.0000 C   0  0  0  0  0  0  0  0  0  0  0  0
    6.3611    5.8017    0.0000 C   0  0  0  0  0  0  0  0  0  0  0  0
    1.7350    1.0052    0.0000 N   0  0  0  0  0  0  0  0  0  0  0  0
    0.8675    1.5129    0.0000 N   0  0  0  0  0  0  0  0  0  0  0  0
    0.0000    1.0052    0.0000 C   0  0  0  0  0  0  0  0  0  0  0  0
    0.0000    0.0000    0.0000 C   0  0  0  0  0  0  0  0  0  0  0  0
   -0.8653   -0.5013    0.0000 O   0  0  0  0  0  0  0  0  0  0  0  0
    0.8675   -0.4975    0.0000 N   0  0  0  0  0  0  0  0  0  0  0  0
    1.7350    0.0000    0.0000 C   0  0  0  0  0  0  0  0  0  0  0  0
    2.6003   -0.5013    0.0000 O   0  0  0  0  0  0  0  0  0  0  0  0
  1  2  1  0
  2  7  2  0
  2  3  1  0
  3  4  2  0
  4  5  1  0
  5  6  2  0
  6  7  1  0
  7  8  1  0
  8  9  2  0
  8 10  1  0
 10 11  1  0
 11 12  1  0
 12 20  1  0
 12 21  1  0
 12 13  1  0
 13 14  1  0
 14 19  1  0
 14 15  1  0
 15 16  1  0
 16 17  1  0
 17 18  1  0
 18 19  1  0
 18 20  1  0
 16 21  1  0
  5 22  1  0
 22 28  1  0
 22 23  1  0
 23 24  2  0
 24 25  1  0
 25 26  2  0
 25 27  1  0
 27 28  1  0
 28 29  2  0
M  END
>  <SMILES>  (599) 
O=C(NCC12CC3CC(CC(C3)C1)C2)c1cc(-n2ncc(=O)[nH]c2=O)ccc1Cl

>  <CollectionName>  (599) 
chembl

>  <LOG PLASMA PROTEIN BINDING (RAT) (% unbound)>  (599) 
0.232996110392

>  <Internal ID>  (599) 


>  <Source>  (599) 
AstraZeneca

$$$$
CHEMBL551813
     RDKit          2D

 36 38  0  0  0  0  0  0  0  0999 V2000
   -1.7320    1.0001    0.0000 C   0  0  0  0  0  0  0  0  0  0  0  0
   -0.8675    1.5026    0.0000 N   0  0  0  0  0  0  0  0  0  0  0  0
   -0.8704    2.5026    0.0000 C   0  0  0  0  0  0  0  0  0  0  0  0
    0.0000    1.0052    0.0000 C   0  0  0  0  0  0  0  0  0  0  0  0
    0.8675    1.5129    0.0000 N   0  0  0  0  0  0  0  0  0  0  0  0
    1.7350    1.0052    0.0000 C   0  0  0  0  0  0  0  0  0  0  0  0
    2.6025    1.5026    0.0000 C   0  0  0  0  0  0  0  0  0  0  0  0
    3.4670    1.0001    0.0000 C   0  0  0  0  0  0  0  0  0  0  0  0
    3.4655    0.0001    0.0000 C   0  0  0  0  0  0  0  0  0  0  0  0
    4.3279   -0.5063    0.0000 C   0  0  0  0  0  0  0  0  0  0  0  0
    5.2007   -0.0075    0.0000 C   0  0  0  0  0  0  0  0  0  0  0  0
    6.0630   -0.5139    0.0000 N   0  0  0  0  0  0  0  0  0  0  0  0
    6.9327   -0.0202    0.0000 C   0  0  0  0  0  0  0  0  0  0  0  0
    6.9400    0.9797    0.0000 O   0  0  0  0  0  0  0  0  0  0  0  0
    7.7950   -0.5266    0.0000 C   0  0  0  0  0  0  0  0  0  0  0  0
    7.7891   -1.5266    0.0000 C   0  0  0  0  0  0  0  0  0  0  0  0
    8.6492   -2.0367    0.0000 C   0  0  0  0  0  0  0  0  0  0  0  0
    9.5241   -1.5418    0.0000 C   0  0  0  0  0  0  0  0  0  0  0  0
    9.5389   -0.5368    0.0000 C   0  0  0  0  0  0  0  0  0  0  0  0
    8.6699   -0.0317    0.0000 C   0  0  0  0  0  0  0  0  0  0  0  0
   10.3842   -2.0520    0.0000 C   0  0  0  0  0  0  0  0  0  0  0  0
   10.8944   -1.1919    0.0000 F   0  0  0  0  0  0  0  0  0  0  0  0
    9.8741   -2.9120    0.0000 F   0  0  0  0  0  0  0  0  0  0  0  0
   11.2443   -2.5621    0.0000 F   0  0  0  0  0  0  0  0  0  0  0  0
    5.2110    0.9976    0.0000 C   0  0  0  0  0  0  0  0  0  0  0  0
    4.3398    1.4989    0.0000 C   0  0  0  0  0  0  0  0  0  0  0  0
    1.7350    0.0000    0.0000 N   0  0  0  0  0  0  0  0  0  0  0  0
    0.8675   -0.4975    0.0000 C   0  0  0  0  0  0  0  0  0  0  0  0
    0.8675   -1.4975    0.0000 N   0  0  0  0  0  0  0  0  0  0  0  0
    1.7335   -1.9975    0.0000 C   0  0  0  0  0  0  0  0  0  0  0  0
    0.0015   -1.9975    0.0000 C   0  0  0  0  0  0  0  0  0  0  0  0
    0.0000    0.0000    0.0000 C   0  0  0  0  0  0  0  0  0  0  0  0
   -1.5143   -0.8772    0.0000 C   0  0  0  0  0  0  0  0  0  0  0  0
   -1.5128   -1.8772    0.0000 C   0  0  0  0  0  0  0  0  0  0  0  0
   -0.6461   -2.3759    0.0000 O   0  0  0  0  0  0  0  0  0  0  0  0
   -2.3781   -2.3785    0.0000 O   0  0  0  0  0  0  0  0  0  0  0  0
  1  2  1  0
  2  3  1  0
  2  4  1  0
  4 32  2  0
  4  5  1  0
  5  6  2  0
  6  7  1  0
  7  8  1  0
  8 26  1  0
  8  9  2  0
  9 10  1  0
 10 11  2  0
 11 12  1  0
 12 13  1  0
 13 14  2  0
 13 15  1  0
 15 20  1  0
 15 16  2  0
 16 17  1  0
 17 18  2  0
 18 19  1  0
 19 20  2  0
 18 21  1  0
 21 22  1  0
 21 23  1  0
 21 24  1  0
 11 25  1  0
 25 26  2  0
  6 27  1  0
 27 28  2  0
 28 29  1  0
 29 30  1  0
 29 31  1  0
 28 32  1  0
 32 33  1  0
 33 34  1  0
 34 35  2  0
 34 36  1  0
M  END
>  <SMILES>  (600) 
CN(C)c1nc(Cc2ccc(NC(=O)c3ccc(C(F)(F)F)cc3)cc2)nc(N(C)C)c1CC(=O)O

>  <CollectionName>  (600) 
chembl

>  <LOG PLASMA PROTEIN BINDING (RAT) (% unbound)>  (600) 
-0.602059991328

>  <Internal ID>  (600) 


>  <Source>  (600) 
AstraZeneca

$$$$
CHEMBL552513
     RDKit          2D

 32 35  0  0  1  0  0  0  0  0999 V2000
    5.4696    0.1066    0.0000 O   0  0  0  0  0  0  0  0  0  0  0  0
    5.2668    1.0858    0.0000 C   0  0  0  0  0  0  0  0  0  0  0  0
    5.9417    1.8259    0.0000 C   0  0  0  0  0  0  0  0  0  0  0  0
    5.4433    2.6981    0.0000 N   0  0  0  0  0  0  0  0  0  0  0  0
    4.4646    2.4906    0.0000 C   0  0  0  0  0  0  0  0  0  0  0  0
    4.3535    1.4968    0.0000 C   0  0  0  0  0  0  0  0  0  0  0  0
    3.4848    1.0014    0.0000 N   0  0  0  0  0  0  0  0  0  0  0  0
    3.4805   -0.0073    0.0000 C   0  0  0  0  0  0  0  0  0  0  0  0
    2.6039   -0.5053    0.0000 C   0  0  0  0  0  0  0  0  0  0  0  0
    1.7371    0.0000    0.0000 C   0  0  0  0  0  0  0  0  0  0  0  0
    0.8707   -0.4993    0.0000 C   0  0  0  0  0  0  0  0  0  0  0  0
    0.8718   -1.4993    0.0000 N   0  0  0  0  0  0  0  0  0  0  0  0
    0.0063   -2.0002    0.0000 C   0  0  0  0  0  0  0  0  0  0  0  0
   -0.8603   -1.5012    0.0000 O   0  0  0  0  0  0  0  0  0  0  0  0
    0.0073   -3.0002    0.0000 C   0  0  0  0  0  0  0  0  0  0  0  0
   -0.8581   -3.5012    0.0000 C   0  0  0  0  0  0  0  0  0  0  0  0
   -1.7277   -2.9969    0.0000 C   0  0  0  0  0  0  0  0  0  0  0  0
   -2.5933   -3.4978    0.0000 C   0  0  0  0  0  0  0  0  0  0  0  0
   -2.5980   -4.4978    0.0000 C   0  0  0  0  0  0  0  0  0  0  0  0
   -3.4657   -4.9949    0.0000 F   0  0  0  0  0  0  0  0  0  0  0  0
   -1.7285   -5.0021    0.0000 C   0  0  0  0  0  0  0  0  0  0  0  0
   -0.8541   -4.5063    0.0000 C   0  0  0  0  0  0  0  0  0  0  0  0
   -1.7333   -6.0021    0.0000 C   0  0  0  0  0  0  0  0  0  0  0  0
   -0.7333   -6.0069    0.0000 F   0  0  0  0  0  0  0  0  0  0  0  0
   -2.7333   -5.9972    0.0000 F   0  0  0  0  0  0  0  0  0  0  0  0
   -1.7381   -7.0020    0.0000 F   0  0  0  0  0  0  0  0  0  0  0  0
    0.0000    0.0000    0.0000 C   0  0  0  0  0  0  0  0  0  0  0  0
    0.0000    1.0089    0.0000 C   0  0  0  0  0  0  0  0  0  0  0  0
    0.8707    1.5185    0.0000 C   0  0  0  0  0  0  0  0  0  0  0  0
    1.7414    1.0089    0.0000 C   0  0  0  0  0  0  0  0  0  0  0  0
    2.6125    1.5125    0.0000 C   0  0  0  0  0  0  0  0  0  0  0  0
    2.6154    2.5125    0.0000 O   0  0  0  0  0  0  0  0  0  0  0  0
  2  1  1  1
  2  6  1  0
  2  3  1  0
  3  4  1  0
  4  5  1  0
  5  6  1  0
  6  7  1  6
  7 31  1  0
  7  8  1  0
  8  9  2  0
  9 10  1  0
 10 30  2  0
 10 11  1  0
 11 12  1  0
 12 13  1  0
 13 14  2  0
 13 15  1  0
 15 16  1  0
 16 22  1  0
 16 17  2  0
 17 18  1  0
 18 19  2  0
 19 20  1  0
 19 21  1  0
 21 22  2  0
 21 23  1  0
 23 24  1  0
 23 25  1  0
 23 26  1  0
 11 27  2  0
 27 28  1  0
 28 29  2  0
 29 30  1  0
 30 31  1  0
 31 32  2  0
M  END
>  <SMILES>  (601) 
O=C(Cc1ccc(F)c(C(F)(F)F)c1)Nc1cccc2c(=O)n([C@@H]3CNC[C@H]3O)ccc12

>  <CollectionName>  (601) 
chembl

>  <LOG PLASMA PROTEIN BINDING (RAT) (% unbound)>  (601) 
0.976808337338

>  <Internal ID>  (601) 


>  <Source>  (601) 
AstraZeneca

$$$$
CHEMBL62136
     RDKit          2D

 31 32  0  0  1  0  0  0  0  0999 V2000
    9.1045   -1.2509    0.0000 O   0  0  0  0  0  0  0  0  0  0  0  0
    8.2378   -0.7521    0.0000 C   0  0  0  0  0  0  0  0  0  0  0  0
    6.7210    0.1207    0.0000 C   0  0  0  0  0  0  0  0  0  0  0  0
    6.7181    1.1207    0.0000 C   0  0  0  0  0  0  0  0  0  0  0  0
    5.8535    1.6232    0.0000 C   0  0  0  0  0  0  0  0  0  0  0  0
    4.9830    1.1206    0.0000 C   0  0  0  0  0  0  0  0  0  0  0  0
    4.9770    0.1155    0.0000 C   0  0  0  0  0  0  0  0  0  0  0  0
    5.8505   -0.3819    0.0000 C   0  0  0  0  0  0  0  0  0  0  0  0
    3.4700    2.0001    0.0000 N   0  0  0  0  0  0  0  0  0  0  0  0
    3.4729    3.0001    0.0000 C   0  0  0  0  0  0  0  0  0  0  0  0
    4.3404    3.4975    0.0000 C   0  0  0  0  0  0  0  0  0  0  0  0
    3.8430    4.3650    0.0000 F   0  0  0  0  0  0  0  0  0  0  0  0
    4.8379    2.6300    0.0000 F   0  0  0  0  0  0  0  0  0  0  0  0
    5.2079    3.9950    0.0000 F   0  0  0  0  0  0  0  0  0  0  0  0
    2.6025    1.5026    0.0000 S   0  0  0  0  0  0  0  0  0  0  0  0
    2.1051    2.3701    0.0000 O   0  0  0  0  0  0  0  0  0  0  0  0
    3.0999    0.6351    0.0000 O   0  0  0  0  0  0  0  0  0  0  0  0
    1.7350    1.0052    0.0000 C   0  0  0  0  0  0  0  0  0  0  0  0
    1.7350   -0.0000    0.0000 C   0  0  0  0  0  0  0  0  0  0  0  0
    0.8675   -0.4975    0.0000 C   0  0  0  0  0  0  0  0  0  0  0  0
    0.0000    0.0000    0.0000 C   0  0  0  0  0  0  0  0  0  0  0  0
    0.0000    1.0052    0.0000 C   0  0  0  0  0  0  0  0  0  0  0  0
    0.8675    1.5129    0.0000 C   0  0  0  0  0  0  0  0  0  0  0  0
    8.7365    0.1146    0.0000 C   0  0  0  0  0  0  0  0  0  0  0  0
    7.8698    0.6134    0.0000 F   0  0  0  0  0  0  0  0  0  0  0  0
    9.6033   -0.3841    0.0000 F   0  0  0  0  0  0  0  0  0  0  0  0
    9.2353    0.9814    0.0000 F   0  0  0  0  0  0  0  0  0  0  0  0
    7.7390   -1.6189    0.0000 C   0  0  0  0  0  0  0  0  0  0  0  0
    8.6058   -2.1176    0.0000 F   0  0  0  0  0  0  0  0  0  0  0  0
    6.8723   -1.1201    0.0000 F   0  0  0  0  0  0  0  0  0  0  0  0
    7.2403   -2.4856    0.0000 F   0  0  0  0  0  0  0  0  0  0  0  0
  1  2  1  0
  2  3  1  0
  3  8  2  0
  3  4  1  0
  4  5  2  0
  5  6  1  0
  6  7  2  0
  7  8  1  0
  6  9  1  0
  9 10  1  0
 10 11  1  0
 11 12  1  0
 11 13  1  0
 11 14  1  0
  9 15  1  0
 15 16  2  0
 15 17  2  0
 15 18  1  0
 18 23  1  0
 18 19  2  0
 19 20  1  0
 20 21  2  0
 21 22  1  0
 22 23  2  0
  2 24  1  0
 24 25  1  0
 24 26  1  0
 24 27  1  0
  2 28  1  0
 28 29  1  0
 28 30  1  0
 28 31  1  0
M  END
>  <SMILES>  (602) 
O=S(=O)(c1ccccc1)N(CC(F)(F)F)c1ccc(C(O)(C(F)(F)F)C(F)(F)F)cc1

>  <CollectionName>  (602) 
chembl

>  <LOG PLASMA PROTEIN BINDING (RAT) (% unbound)>  (602) 
-0.537602002101

>  <Internal ID>  (602) 


>  <Source>  (602) 
AstraZeneca

$$$$
CHEMBL526307
     RDKit          2D

 21 22  0  0  0  0  0  0  0  0999 V2000
   -5.2065    0.9796    0.0000 C   0  0  0  0  0  0  0  0  0  0  0  0
   -4.3434    1.4847    0.0000 O   0  0  0  0  0  0  0  0  0  0  0  0
   -3.4745    0.9898    0.0000 C   0  0  0  0  0  0  0  0  0  0  0  0
   -3.4672   -0.0102    0.0000 C   0  0  0  0  0  0  0  0  0  0  0  0
   -2.6004   -0.5089    0.0000 C   0  0  0  0  0  0  0  0  0  0  0  0
   -2.5974   -1.5089    0.0000 C   0  0  0  0  0  0  0  0  0  0  0  0
   -3.4620   -2.0115    0.0000 C   0  0  0  0  0  0  0  0  0  0  0  0
   -1.7299   -2.0064    0.0000 C   0  0  0  0  0  0  0  0  0  0  0  0
   -1.7320   -0.0025    0.0000 C   0  0  0  0  0  0  0  0  0  0  0  0
   -0.8653   -0.5013    0.0000 O   0  0  0  0  0  0  0  0  0  0  0  0
    0.0000    0.0000    0.0000 C   0  0  0  0  0  0  0  0  0  0  0  0
    0.0000    1.0052    0.0000 C   0  0  0  0  0  0  0  0  0  0  0  0
    0.8675    1.5129    0.0000 N   0  0  0  0  0  0  0  0  0  0  0  0
    1.7350    1.0052    0.0000 C   0  0  0  0  0  0  0  0  0  0  0  0
    2.6025    1.5026    0.0000 N   0  0  0  0  0  0  0  0  0  0  0  0
    1.7350    0.0000    0.0000 N   0  0  0  0  0  0  0  0  0  0  0  0
    0.8675   -0.4975    0.0000 C   0  0  0  0  0  0  0  0  0  0  0  0
    0.8675   -1.4975    0.0000 N   0  0  0  0  0  0  0  0  0  0  0  0
   -1.7305    1.0026    0.0000 C   0  0  0  0  0  0  0  0  0  0  0  0
   -2.6062    1.4962    0.0000 C   0  0  0  0  0  0  0  0  0  0  0  0
   -2.6135    2.4962    0.0000 I   0  0  0  0  0  0  0  0  0  0  0  0
  1  2  1  0
  2  3  1  0
  3 20  2  0
  3  4  1  0
  4  5  2  0
  5  6  1  0
  6  7  1  0
  6  8  1  0
  5  9  1  0
  9 10  1  0
 10 11  1  0
 11 17  1  0
 11 12  2  0
 12 13  1  0
 13 14  2  0
 14 15  1  0
 14 16  1  0
 16 17  2  0
 17 18  1  0
  9 19  2  0
 19 20  1  0
 20 21  1  0
M  END
>  <SMILES>  (603) 
COc1cc(C(C)C)c(Oc2cnc(N)nc2N)cc1I

>  <CollectionName>  (603) 
chembl

>  <LOG PLASMA PROTEIN BINDING (RAT) (% unbound)>  (603) 
0.583198773969

>  <Internal ID>  (603) 


>  <Source>  (603) 
AstraZeneca

$$$$
CHEMBL165330
     RDKit          2D

 25 26  0  0  1  0  0  0  0  0999 V2000
    0.7535   -7.0032    0.0000 C   0  0  0  0  0  0  0  0  0  0  0  0
    1.7535   -6.9988    0.0000 C   0  0  0  0  0  0  0  0  0  0  0  0
    2.7535   -6.9944    0.0000 O   0  0  0  0  0  0  0  0  0  0  0  0
    1.7491   -5.9988    0.0000 C   0  0  0  0  0  0  0  0  0  0  0  0
    2.6129   -5.4950    0.0000 O   0  0  0  0  0  0  0  0  0  0  0  0
    0.8809   -5.5026    0.0000 N   0  0  0  0  0  0  0  0  0  0  0  0
    0.8764   -4.5026    0.0000 C   0  0  0  0  0  0  0  0  0  0  0  0
    1.7396   -3.9976    0.0000 C   0  0  0  0  0  0  0  0  0  0  0  0
    1.7395   -2.9975    0.0000 C   0  0  0  0  0  0  0  0  0  0  0  0
    0.8675   -2.4975    0.0000 C   0  0  0  0  0  0  0  0  0  0  0  0
   -0.0045   -2.9975    0.0000 C   0  0  0  0  0  0  0  0  0  0  0  0
    0.0044   -4.0026    0.0000 C   0  0  0  0  0  0  0  0  0  0  0  0
    0.8675   -1.4975    0.0000 S   0  0  0  0  0  0  0  0  0  0  0  0
   -0.1325   -1.4975    0.0000 O   0  0  0  0  0  0  0  0  0  0  0  0
    1.8675   -1.4975    0.0000 O   0  0  0  0  0  0  0  0  0  0  0  0
    0.8675   -0.4975    0.0000 N   0  0  0  0  0  0  0  0  0  0  0  0
    0.0000    0.0000    0.0000 C   0  0  0  0  0  0  0  0  0  0  0  0
    0.0000    1.0052    0.0000 C   0  0  0  0  0  0  0  0  0  0  0  0
    0.8675    1.5129    0.0000 O   0  0  0  0  0  0  0  0  0  0  0  0
    1.7350    1.0052    0.0000 C   0  0  0  0  0  0  0  0  0  0  0  0
    1.7350    0.0000    0.0000 C   0  0  0  0  0  0  0  0  0  0  0  0
    1.7579   -7.9988    0.0000 C   0  0  0  0  0  0  0  0  0  0  0  0
    2.7579   -7.9944    0.0000 F   0  0  0  0  0  0  0  0  0  0  0  0
    0.7579   -8.0032    0.0000 F   0  0  0  0  0  0  0  0  0  0  0  0
    1.7623   -8.9988    0.0000 F   0  0  0  0  0  0  0  0  0  0  0  0
  1  2  1  0
  2  3  1  0
  2  4  1  0
  4  5  2  0
  4  6  1  0
  6  7  1  0
  7 12  2  0
  7  8  1  0
  8  9  2  0
  9 10  1  0
 10 11  2  0
 11 12  1  0
 10 13  1  0
 13 14  2  0
 13 15  2  0
 13 16  1  0
 16 21  1  0
 16 17  1  0
 17 18  1  0
 18 19  1  0
 19 20  1  0
 20 21  1  0
  2 22  1  0
 22 23  1  0
 22 24  1  0
 22 25  1  0
M  END
>  <SMILES>  (604) 
CC(O)(C(=O)Nc1ccc(S(=O)(=O)N2CCOCC2)cc1)C(F)(F)F

>  <CollectionName>  (604) 
chembl

>  <LOG PLASMA PROTEIN BINDING (RAT) (% unbound)>  (604) 
1.17897694729

>  <Internal ID>  (604) 


>  <Source>  (604) 
AstraZeneca

$$$$
CHEMBL515062
     RDKit          2D

 33 35  0  0  1  0  0  0  0  0999 V2000
    5.5295   -1.3653    0.0000 C   0  0  0  0  0  0  0  0  0  0  0  0
    4.5349   -1.2621    0.0000 C   0  0  0  0  0  0  0  0  0  0  0  0
    3.9482   -2.0718    0.0000 C   0  0  0  0  0  0  0  0  0  0  0  0
    4.1269   -0.3490    0.0000 O   0  0  0  0  0  0  0  0  0  0  0  0
    4.7136    0.4608    0.0000 C   0  0  0  0  0  0  0  0  0  0  0  0
    4.4018    1.4125    0.0000 C   0  0  0  0  0  0  0  0  0  0  0  0
    5.2109    2.0001    0.0000 C   0  0  0  0  0  0  0  0  0  0  0  0
    5.2079    3.0001    0.0000 N   0  0  0  0  0  0  0  0  0  0  0  0
    4.3404    3.4976    0.0000 C   0  0  0  0  0  0  0  0  0  0  0  0
    3.4729    2.9899    0.0000 N   0  0  0  0  0  0  0  0  0  0  0  0
    2.6054    3.4976    0.0000 C   0  0  0  0  0  0  0  0  0  0  0  0
    1.7379    3.0001    0.0000 N   0  0  0  0  0  0  0  0  0  0  0  0
    1.7350    2.0001    0.0000 C   0  0  0  0  0  0  0  0  0  0  0  0
    2.5995    1.4976    0.0000 C   0  0  0  0  0  0  0  0  0  0  0  0
    0.8675    1.5027    0.0000 C   0  0  0  0  0  0  0  0  0  0  0  0
    0.8675    0.4975    0.0000 C   0  0  0  0  0  0  0  0  0  0  0  0
    0.0000    0.0000    0.0000 C   0  0  0  0  0  0  0  0  0  0  0  0
   -0.8675    0.4975    0.0000 C   0  0  0  0  0  0  0  0  0  0  0  0
   -1.7328   -0.0038    0.0000 F   0  0  0  0  0  0  0  0  0  0  0  0
   -0.8675    1.5027    0.0000 C   0  0  0  0  0  0  0  0  0  0  0  0
    0.0000    2.0104    0.0000 N   0  0  0  0  0  0  0  0  0  0  0  0
    2.6054    4.5028    0.0000 N   0  0  0  0  0  0  0  0  0  0  0  0
    3.4729    5.0003    0.0000 C   0  0  0  0  0  0  0  0  0  0  0  0
    3.4729    6.0003    0.0000 O   0  0  0  0  0  0  0  0  0  0  0  0
    2.6069    6.5003    0.0000 C   0  0  0  0  0  0  0  0  0  0  0  0
    1.7409    6.0003    0.0000 C   0  0  0  0  0  0  0  0  0  0  0  0
    1.7409    5.0003    0.0000 O   0  0  0  0  0  0  0  0  0  0  0  0
    2.6069    7.5003    0.0000 C   0  0  0  0  0  0  0  0  0  0  0  0
    1.7409    8.0003    0.0000 O   0  0  0  0  0  0  0  0  0  0  0  0
    4.3404    4.5028    0.0000 C   0  0  0  0  0  0  0  0  0  0  0  0
    5.2057    5.0040    0.0000 Cl  0  0  0  0  0  0  0  0  0  0  0  0
    6.0238    1.4170    0.0000 N   0  0  0  0  0  0  0  0  0  0  0  0
    5.7153    0.4609    0.0000 N   0  0  0  0  0  0  0  0  0  0  0  0
  1  2  1  0
  2  3  1  0
  2  4  1  0
  4  5  1  0
  5 33  1  0
  5  6  2  0
  6  7  1  0
  7  8  1  0
  8  9  1  0
  9 30  1  0
  9 10  2  0
 10 11  1  0
 11 12  1  0
 12 13  1  0
 13 14  1  1
 13 15  1  0
 15 21  1  0
 15 16  2  0
 16 17  1  0
 17 18  2  0
 18 19  1  0
 18 20  1  0
 20 21  2  0
 11 22  2  0
 22 23  1  0
 23 24  1  0
 24 25  1  0
 25 26  1  0
 26 27  1  0
 25 28  1  0
 28 29  1  0
 23 30  2  0
 30 31  1  0
  7 32  2  0
 32 33  1  0
M  END
>  <SMILES>  (605) 
CC(C)Oc1cc(Nc2nc(N[C@@H](C)c3ccc(F)cn3)nc(OC(CO)CO)c2Cl)n[nH]1

>  <CollectionName>  (605) 
chembl

>  <LOG PLASMA PROTEIN BINDING (RAT) (% unbound)>  (605) 
1.23754373814

>  <Internal ID>  (605) 


>  <Source>  (605) 
AstraZeneca

$$$$
CHEMBL520733
     RDKit          2D

 26 27  0  0  1  0  0  0  0  0999 V2000
   -0.4272    8.4982    0.0000 C   0  0  0  0  0  0  0  0  0  0  0  0
    0.3041    7.8162    0.0000 C   0  0  0  0  0  0  0  0  0  0  0  0
    1.2604    8.1084    0.0000 C   0  0  0  0  0  0  0  0  0  0  0  0
    0.0791    6.8418    0.0000 C   0  0  0  0  0  0  0  0  0  0  0  0
   -0.8773    6.5495    0.0000 O   0  0  0  0  0  0  0  0  0  0  0  0
    0.8104    6.1597    0.0000 C   0  0  0  0  0  0  0  0  0  0  0  0
    1.7667    6.4520    0.0000 O   0  0  0  0  0  0  0  0  0  0  0  0
    0.5853    5.1854    0.0000 N   0  0  0  0  0  0  0  0  0  0  0  0
    1.3166    4.5033    0.0000 C   0  0  0  0  0  0  0  0  0  0  0  0
    2.2729    4.7956    0.0000 C   0  0  0  0  0  0  0  0  0  0  0  0
    1.0915    3.5290    0.0000 C   0  0  0  0  0  0  0  0  0  0  0  0
    0.1352    3.2367    0.0000 O   0  0  0  0  0  0  0  0  0  0  0  0
    1.8228    2.8469    0.0000 N   0  0  0  0  0  0  0  0  0  0  0  0
    1.4290    1.1418    0.0000 C   0  0  0  0  0  0  0  0  0  0  0  0
    0.4384    0.9159    0.0000 C   0  0  0  0  0  0  0  0  0  0  0  0
   -0.1859    1.6971    0.0000 O   0  0  0  0  0  0  0  0  0  0  0  0
    0.0000    0.0000    0.0000 N   0  0  0  0  0  0  0  0  0  0  0  0
   -1.0000    0.0007    0.0000 C   0  0  0  0  0  0  0  0  0  0  0  0
    0.4360   -0.9143    0.0000 C   0  0  0  0  0  0  0  0  0  0  0  0
    1.4241   -1.1362    0.0000 C   0  0  0  0  0  0  0  0  0  0  0  0
    2.2192   -0.5026    0.0000 C   0  0  0  0  0  0  0  0  0  0  0  0
    3.0837   -1.0052    0.0000 C   0  0  0  0  0  0  0  0  0  0  0  0
    3.9567   -0.5076    0.0000 C   0  0  0  0  0  0  0  0  0  0  0  0
    3.9596    0.4979    0.0000 C   0  0  0  0  0  0  0  0  0  0  0  0
    3.0895    1.0060    0.0000 C   0  0  0  0  0  0  0  0  0  0  0  0
    2.2220    0.5029    0.0000 C   0  0  0  0  0  0  0  0  0  0  0  0
  1  2  1  0
  2  3  1  0
  2  4  1  0
  4  5  1  1
  4  6  1  0
  6  7  2  0
  6  8  1  0
  8  9  1  0
  9 10  1  1
  9 11  1  0
 11 12  2  0
 11 13  1  0
 14 13  1  1
 14 26  1  0
 14 15  1  0
 15 16  2  0
 15 17  1  0
 17 18  1  0
 17 19  1  0
 19 20  1  0
 20 21  1  0
 21 26  2  0
 21 22  1  0
 22 23  2  0
 23 24  1  0
 24 25  2  0
 25 26  1  0
M  END
>  <SMILES>  (606) 
CC(C)[C@H](O)C(=O)N[C@@H](C)C(=O)N[C@@H]1C(=O)N(C)CCc2ccccc21

>  <CollectionName>  (606) 
chembl

>  <LOG PLASMA PROTEIN BINDING (RAT) (% unbound)>  (606) 
1.89856064494

>  <Internal ID>  (606) 


>  <Source>  (606) 
AstraZeneca

$$$$
CHEMBL521096
     RDKit          2D

 32 35  0  0  0  0  0  0  0  0999 V2000
   -2.5995    1.5012    0.0000 C   0  0  0  0  0  0  0  0  0  0  0  0
   -1.7320    1.0038    0.0000 C   0  0  0  0  0  0  0  0  0  0  0  0
   -0.8675    1.5063    0.0000 O   0  0  0  0  0  0  0  0  0  0  0  0
    0.0000    1.0089    0.0000 C   0  0  0  0  0  0  0  0  0  0  0  0
    0.8707    1.5185    0.0000 C   0  0  0  0  0  0  0  0  0  0  0  0
    1.7414    1.0089    0.0000 C   0  0  0  0  0  0  0  0  0  0  0  0
    2.6125    1.5125    0.0000 N   0  0  0  0  0  0  0  0  0  0  0  0
    3.4848    1.0014    0.0000 C   0  0  0  0  0  0  0  0  0  0  0  0
    3.4805   -0.0073    0.0000 C   0  0  0  0  0  0  0  0  0  0  0  0
    4.3437   -0.5122    0.0000 C   0  0  0  0  0  0  0  0  0  0  0  0
    4.3381   -1.5121    0.0000 O   0  0  0  0  0  0  0  0  0  0  0  0
    5.2125   -0.0170    0.0000 N   0  0  0  0  0  0  0  0  0  0  0  0
    2.6039   -0.5053    0.0000 C   0  0  0  0  0  0  0  0  0  0  0  0
    2.5983   -1.5053    0.0000 N   0  0  0  0  0  0  0  0  0  0  0  0
    1.7295   -2.0004    0.0000 C   0  0  0  0  0  0  0  0  0  0  0  0
    0.8655   -1.4969    0.0000 C   0  0  0  0  0  0  0  0  0  0  0  0
   -0.0054   -1.9883    0.0000 C   0  0  0  0  0  0  0  0  0  0  0  0
   -0.0125   -2.9934    0.0000 C   0  0  0  0  0  0  0  0  0  0  0  0
   -0.8835   -3.4848    0.0000 C   0  0  0  0  0  0  0  0  0  0  0  0
    0.8514   -3.5072    0.0000 C   0  0  0  0  0  0  0  0  0  0  0  0
    1.7225   -3.0056    0.0000 C   0  0  0  0  0  0  0  0  0  0  0  0
    2.5864   -3.5092    0.0000 F   0  0  0  0  0  0  0  0  0  0  0  0
    1.7371   -0.0000    0.0000 C   0  0  0  0  0  0  0  0  0  0  0  0
    0.8707   -0.4993    0.0000 C   0  0  0  0  0  0  0  0  0  0  0  0
    0.0000    0.0000    0.0000 C   0  0  0  0  0  0  0  0  0  0  0  0
   -0.8653   -0.5013    0.0000 N   0  0  0  0  0  0  0  0  0  0  0  0
   -1.7395   -0.0051    0.0000 C   0  0  0  0  0  0  0  0  0  0  0  0
   -2.6092   -0.5090    0.0000 C   0  0  0  0  0  0  0  0  0  0  0  0
   -2.6049   -1.5090    0.0000 N   0  0  0  0  0  0  0  0  0  0  0  0
   -3.4702   -2.0103    0.0000 C   0  0  0  0  0  0  0  0  0  0  0  0
   -1.7395   -2.0103    0.0000 C   0  0  0  0  0  0  0  0  0  0  0  0
   -0.8697   -1.5064    0.0000 C   0  0  0  0  0  0  0  0  0  0  0  0
  1  2  1  0
  2  3  1  0
  3  4  1  0
  4 25  2  0
  4  5  1  0
  5  6  2  0
  6 23  1  0
  6  7  1  0
  7  8  2  0
  8  9  1  0
  9 10  1  0
 10 11  2  0
 10 12  1  0
  9 13  2  0
 13 14  1  0
 14 15  1  0
 15 21  1  0
 15 16  2  0
 16 17  1  0
 17 18  2  0
 18 19  1  0
 18 20  1  0
 20 21  2  0
 21 22  1  0
 13 23  1  0
 23 24  2  0
 24 25  1  0
 25 26  1  0
 26 32  1  0
 26 27  1  0
 27 28  1  0
 28 29  1  0
 29 30  1  0
 29 31  1  0
 31 32  1  0
M  END
>  <SMILES>  (607) 
CCOc1cc2ncc(C(N)=O)c(Nc3ccc(C)cc3F)c2cc1N1CCN(C)CC1

>  <CollectionName>  (607) 
chembl

>  <LOG PLASMA PROTEIN BINDING (RAT) (% unbound)>  (607) 
1.17897694729

>  <Internal ID>  (607) 


>  <Source>  (607) 
AstraZeneca

$$$$
CHEMBL57895
     RDKit          2D

 16 18  0  0  1  0  0  0  0  0999 V2000
    3.4220   -0.0292    0.0000 C   0  0  0  0  0  0  0  0  0  0  0  0
    2.4714    0.2811    0.0000 C   0  0  0  0  0  0  0  0  0  0  0  0
    2.2648    1.2596    0.0000 C   0  0  0  0  0  0  0  0  0  0  0  0
    1.8565    2.1802    0.0000 C   0  0  0  0  0  0  0  0  0  0  0  0
    2.6060    2.8530    0.0000 C   0  0  0  0  0  0  0  0  0  0  0  0
    2.6114    3.8530    0.0000 C   0  0  0  0  0  0  0  0  0  0  0  0
    3.4772    4.3545    0.0000 C   0  0  0  0  0  0  0  0  0  0  0  0
    4.3475    3.8504    0.0000 C   0  0  0  0  0  0  0  0  0  0  0  0
    4.3520    2.8446    0.0000 C   0  0  0  0  0  0  0  0  0  0  0  0
    3.4773    2.3482    0.0000 C   0  0  0  0  0  0  0  0  0  0  0  0
    3.2664    1.3635    0.0000 O   0  0  0  0  0  0  0  0  0  0  0  0
    1.3133    0.9519    0.0000 C   0  0  0  0  0  0  0  0  0  0  0  0
    0.5008    1.5428    0.0000 N   0  0  0  0  0  0  0  0  0  0  0  0
   -0.3065    0.9519    0.0000 C   0  0  0  0  0  0  0  0  0  0  0  0
    0.0000    0.0000    0.0000 C   0  0  0  0  0  0  0  0  0  0  0  0
    1.0015   -0.0000    0.0000 N   0  0  0  0  0  0  0  0  0  0  0  0
  1  2  1  0
  2  3  1  0
  3 11  1  0
  3  4  1  0
  4  5  1  0
  5 10  2  0
  5  6  1  0
  6  7  2  0
  7  8  1  0
  8  9  2  0
  9 10  1  0
 10 11  1  0
  3 12  1  0
 12 16  1  0
 12 13  2  0
 13 14  1  0
 14 15  1  0
 15 16  1  0
M  END
>  <SMILES>  (608) 
CCC1(C2=NCCN2)Cc2ccccc2O1

>  <CollectionName>  (608) 
chembl

>  <LOG PLASMA PROTEIN BINDING (RAT) (% unbound)>  (608) 
1.8806421264

>  <Internal ID>  (608) 


>  <Source>  (608) 
AstraZeneca

$$$$
CHEMBL1807823
     RDKit          2D

 30 32  0  0  1  0  0  0  0  0999 V2000
    1.7340    3.0138    0.0000 O   0  0  0  0  0  0  0  0  0  0  0  0
    0.8680    2.5138    0.0000 C   0  0  0  0  0  0  0  0  0  0  0  0
    0.0020    3.0138    0.0000 C   0  0  0  0  0  0  0  0  0  0  0  0
    0.0020    4.0138    0.0000 N   0  0  0  0  0  0  0  0  0  0  0  0
   -0.8641    4.5138    0.0000 C   0  0  0  0  0  0  0  0  0  0  0  0
   -0.8640    5.5138    0.0000 C   0  0  0  0  0  0  0  0  0  0  0  0
   -1.7301    6.0138    0.0000 S   0  0  0  0  0  0  0  0  0  0  0  0
   -1.7301    7.0138    0.0000 C   0  0  0  0  0  0  0  0  0  0  0  0
   -2.5961    7.5138    0.0000 C   0  0  0  0  0  0  0  0  0  0  0  0
   -2.5961    8.5138    0.0000 C   0  0  0  0  0  0  0  0  0  0  0  0
   -3.4621    9.0138    0.0000 N   0  0  0  0  0  0  0  0  0  0  0  0
   -3.4621   10.0138    0.0000 C   0  0  0  0  0  0  0  0  0  0  0  0
   -4.3282   10.5138    0.0000 C   0  0  0  0  0  0  0  0  0  0  0  0
   -4.3281   11.5138    0.0000 C   0  0  0  0  0  0  0  0  0  0  0  0
   -5.2002   12.0138    0.0000 C   0  0  0  0  0  0  0  0  0  0  0  0
   -5.2002   13.0139    0.0000 C   0  0  0  0  0  0  0  0  0  0  0  0
   -4.3371   13.5189    0.0000 C   0  0  0  0  0  0  0  0  0  0  0  0
   -3.4651   13.0189    0.0000 C   0  0  0  0  0  0  0  0  0  0  0  0
   -3.4562   12.0138    0.0000 C   0  0  0  0  0  0  0  0  0  0  0  0
    0.8680    1.5138    0.0000 C   0  0  0  0  0  0  0  0  0  0  0  0
    0.0000    1.0058    0.0000 C   0  0  0  0  0  0  0  0  0  0  0  0
    0.0000    0.0000    0.0000 C   0  0  0  0  0  0  0  0  0  0  0  0
    0.8680   -0.4978    0.0000 C   0  0  0  0  0  0  0  0  0  0  0  0
    0.8675   -1.4978    0.0000 O   0  0  0  0  0  0  0  0  0  0  0  0
    1.7360   -0.0012    0.0000 C   0  0  0  0  0  0  0  0  0  0  0  0
    2.6938   -0.3125    0.0000 N   0  0  0  0  0  0  0  0  0  0  0  0
    3.2858    0.5023    0.0000 C   0  0  0  0  0  0  0  0  0  0  0  0
    4.2858    0.5024    0.0000 O   0  0  0  0  0  0  0  0  0  0  0  0
    2.6938    1.3169    0.0000 S   0  0  0  0  0  0  0  0  0  0  0  0
    1.7360    1.0058    0.0000 C   0  0  0  0  0  0  0  0  0  0  0  0
  2  1  1  6
  2  3  1  0
  3  4  1  0
  4  5  1  0
  5  6  1  0
  6  7  1  0
  7  8  1  0
  8  9  1  0
  9 10  1  0
 10 11  1  0
 11 12  1  0
 12 13  1  0
 13 14  1  0
 14 19  1  0
 14 15  2  0
 15 16  1  0
 16 17  2  0
 17 18  1  0
 18 19  2  0
  2 20  1  0
 20 30  1  0
 20 21  2  0
 21 22  1  0
 22 23  2  0
 23 24  1  0
 23 25  1  0
 25 30  2  0
 25 26  1  0
 26 27  1  0
 27 28  2  0
 27 29  1  0
 29 30  1  0
M  END
>  <SMILES>  (609) 
O=c1[nH]c2c(O)ccc([C@@H](O)CNCCSCCCNCCc3ccccc3)c2s1

>  <CollectionName>  (609) 
chembl

>  <LOG PLASMA PROTEIN BINDING (RAT) (% unbound)>  (609) 
1.64610952198

>  <Internal ID>  (609) 


>  <Source>  (609) 
AstraZeneca

$$$$
CHEMBL1818294
     RDKit          2D

 40 43  0  0  1  0  0  0  0  0999 V2000
    8.7059    3.9788    0.0000 C   0  0  0  0  0  0  0  0  0  0  0  0
    8.7006    2.9788    0.0000 N   0  0  0  0  0  0  0  0  0  0  0  0
    9.5639    2.4742    0.0000 C   0  0  0  0  0  0  0  0  0  0  0  0
    7.8319    2.4834    0.0000 C   0  0  0  0  0  0  0  0  0  0  0  0
    6.9686    2.9880    0.0000 C   0  0  0  0  0  0  0  0  0  0  0  0
    6.0999    2.4927    0.0000 N   0  0  0  0  0  0  0  0  0  0  0  0
    6.0974    1.4926    0.0000 C   0  0  0  0  0  0  0  0  0  0  0  0
    5.2242    0.9947    0.0000 C   0  0  0  0  0  0  0  0  0  0  0  0
    4.3535    1.4968    0.0000 N   0  0  0  0  0  0  0  0  0  0  0  0
    4.3648    2.5019    0.0000 C   0  0  0  0  0  0  0  0  0  0  0  0
    5.2380    2.9998    0.0000 C   0  0  0  0  0  0  0  0  0  0  0  0
    3.4848    1.0014    0.0000 C   0  0  0  0  0  0  0  0  0  0  0  0
    3.4805   -0.0073    0.0000 C   0  0  0  0  0  0  0  0  0  0  0  0
    2.6039   -0.5053    0.0000 C   0  0  0  0  0  0  0  0  0  0  0  0
    2.5983   -1.5053    0.0000 C   0  0  0  0  0  0  0  0  0  0  0  0
    3.4615   -2.0101    0.0000 O   0  0  0  0  0  0  0  0  0  0  0  0
    1.7295   -2.0004    0.0000 N   0  0  0  0  0  0  0  0  0  0  0  0
    1.7240   -3.0004    0.0000 C   0  0  0  0  0  0  0  0  0  0  0  0
    0.8552   -3.4956    0.0000 C   0  0  0  0  0  0  0  0  0  0  0  0
   -0.0088   -2.9920    0.0000 C   0  0  0  0  0  0  0  0  0  0  0  0
   -0.8798   -3.4834    0.0000 C   0  0  0  0  0  0  0  0  0  0  0  0
   -0.8869   -4.4886    0.0000 C   0  0  0  0  0  0  0  0  0  0  0  0
   -1.7578   -4.9799    0.0000 C   0  0  0  0  0  0  0  0  0  0  0  0
   -1.7678   -5.9799    0.0000 N   0  0  0  0  0  0  0  0  0  0  0  0
   -2.6388   -6.4712    0.0000 C   0  0  0  0  0  0  0  0  0  0  0  0
   -3.4998   -5.9626    0.0000 O   0  0  0  0  0  0  0  0  0  0  0  0
   -2.6488   -7.4711    0.0000 O   0  0  0  0  0  0  0  0  0  0  0  0
   -3.5197   -7.9625    0.0000 C   0  0  0  0  0  0  0  0  0  0  0  0
   -4.3907   -8.4538    0.0000 C   0  0  0  0  0  0  0  0  0  0  0  0
   -4.0111   -7.0915    0.0000 C   0  0  0  0  0  0  0  0  0  0  0  0
   -3.0284   -8.8335    0.0000 C   0  0  0  0  0  0  0  0  0  0  0  0
   -0.0230   -5.0024    0.0000 C   0  0  0  0  0  0  0  0  0  0  0  0
    0.8481   -4.5008    0.0000 C   0  0  0  0  0  0  0  0  0  0  0  0
    1.7371    0.0000    0.0000 C   0  0  0  0  0  0  0  0  0  0  0  0
    0.8707   -0.4993    0.0000 C   0  0  0  0  0  0  0  0  0  0  0  0
    0.0000    0.0000    0.0000 C   0  0  0  0  0  0  0  0  0  0  0  0
    0.0000    1.0089    0.0000 C   0  0  0  0  0  0  0  0  0  0  0  0
    0.8707    1.5185    0.0000 C   0  0  0  0  0  0  0  0  0  0  0  0
    1.7414    1.0089    0.0000 C   0  0  0  0  0  0  0  0  0  0  0  0
    2.6125    1.5125    0.0000 N   0  0  0  0  0  0  0  0  0  0  0  0
  1  2  1  0
  2  3  1  0
  2  4  1  0
  4  5  1  0
  5  6  1  0
  6 11  1  0
  6  7  1  0
  7  8  1  0
  8  9  1  0
  9 10  1  0
 10 11  1  0
  9 12  1  0
 12 40  1  0
 12 13  2  0
 13 14  1  0
 14 15  1  0
 15 16  2  0
 15 17  1  0
 17 18  1  0
 19 18  1  1
 19 33  1  0
 19 20  1  0
 20 21  1  0
 21 22  1  0
 22 23  1  6
 23 24  1  0
 24 25  1  0
 25 26  2  0
 25 27  1  0
 27 28  1  0
 28 29  1  0
 28 30  1  0
 28 31  1  0
 22 32  1  0
 32 33  1  0
 14 34  2  0
 34 39  1  0
 34 35  1  0
 35 36  2  0
 36 37  1  0
 37 38  2  0
 38 39  1  0
 39 40  2  0
M  END
>  <SMILES>  (610) 
CN(C)CCN1CCN(c2cc(C(=O)NC[C@H]3CC[C@H](CNC(=O)OC(C)(C)C)CC3)c3ccccc3n2)CC1

>  <CollectionName>  (610) 
chembl

>  <LOG PLASMA PROTEIN BINDING (RAT) (% unbound)>  (610) 
0.754348335711

>  <Internal ID>  (610) 


>  <Source>  (610) 
AstraZeneca

$$$$
CHEMBL495575
     RDKit          2D

 29 31  0  0  0  0  0  0  0  0999 V2000
    2.2480   -0.1213    0.0000 F   0  0  0  0  0  0  0  0  0  0  0  0
    3.2480   -0.1198    0.0000 C   0  0  0  0  0  0  0  0  0  0  0  0
    4.2480   -0.1183    0.0000 F   0  0  0  0  0  0  0  0  0  0  0  0
    3.2465    0.8802    0.0000 F   0  0  0  0  0  0  0  0  0  0  0  0
    3.2506   -1.8698    0.0000 C   0  0  0  0  0  0  0  0  0  0  0  0
    4.1167   -2.3698    0.0000 C   0  0  0  0  0  0  0  0  0  0  0  0
    4.1225   -3.3698    0.0000 C   0  0  0  0  0  0  0  0  0  0  0  0
    3.2535   -3.8750    0.0000 C   0  0  0  0  0  0  0  0  0  0  0  0
    2.3786   -3.3801    0.0000 C   0  0  0  0  0  0  0  0  0  0  0  0
    2.3816   -2.3750    0.0000 C   0  0  0  0  0  0  0  0  0  0  0  0
    0.8660   -1.5000    0.0000 S   0  0  0  0  0  0  0  0  0  0  0  0
    0.3660   -2.3660    0.0000 O   0  0  0  0  0  0  0  0  0  0  0  0
    1.3660   -0.6340    0.0000 O   0  0  0  0  0  0  0  0  0  0  0  0
    0.0000   -1.0000    0.0000 N   0  0  0  0  0  0  0  0  0  0  0  0
    0.0000    0.0000    0.0000 C   0  0  0  0  0  0  0  0  0  0  0  0
   -0.8675    0.4975    0.0000 C   0  0  0  0  0  0  0  0  0  0  0  0
   -0.8675    1.5027    0.0000 C   0  0  0  0  0  0  0  0  0  0  0  0
   -0.0000    2.0104    0.0000 N   0  0  0  0  0  0  0  0  0  0  0  0
    0.8675    1.5027    0.0000 C   0  0  0  0  0  0  0  0  0  0  0  0
    0.8675    0.4975    0.0000 C   0  0  0  0  0  0  0  0  0  0  0  0
    3.2594   -4.8750    0.0000 S   0  0  0  0  0  0  0  0  0  0  0  0
    2.2594   -4.8809    0.0000 O   0  0  0  0  0  0  0  0  0  0  0  0
    4.2594   -4.8691    0.0000 O   0  0  0  0  0  0  0  0  0  0  0  0
    3.2653   -5.8750    0.0000 C   0  0  0  0  0  0  0  0  0  0  0  0
    4.1402   -6.3698    0.0000 C   0  0  0  0  0  0  0  0  0  0  0  0
    4.1462   -7.3698    0.0000 C   0  0  0  0  0  0  0  0  0  0  0  0
    3.2861   -7.8800    0.0000 C   0  0  0  0  0  0  0  0  0  0  0  0
    2.4111   -7.3851    0.0000 C   0  0  0  0  0  0  0  0  0  0  0  0
    2.3963   -6.3801    0.0000 C   0  0  0  0  0  0  0  0  0  0  0  0
  1  2  1  0
  2  3  1  0
  2  4  1  0
  2  5  1  0
  5 10  2  0
  5  6  1  0
  6  7  2  0
  7  8  1  0
  8  9  2  0
  9 10  1  0
 10 11  1  0
 11 12  2  0
 11 13  2  0
 11 14  1  0
 14 15  1  0
 15 20  1  0
 15 16  1  0
 16 17  1  0
 17 18  1  0
 18 19  1  0
 19 20  1  0
  8 21  1  0
 21 22  2  0
 21 23  2  0
 21 24  1  0
 24 29  1  0
 24 25  2  0
 25 26  1  0
 26 27  2  0
 27 28  1  0
 28 29  2  0
M  END
>  <SMILES>  (611) 
O=S(=O)(NC1CCNCC1)c1cc(S(=O)(=O)c2ccccc2)ccc1C(F)(F)F

>  <CollectionName>  (611) 
chembl

>  <LOG PLASMA PROTEIN BINDING (RAT) (% unbound)>  (611) 
1.34986008219

>  <Internal ID>  (611) 


>  <Source>  (611) 
AstraZeneca

$$$$
CHEMBL1743245
     RDKit          2D

 25 27  0  0  0  0  0  0  0  0999 V2000
   -8.0316   -0.2006    0.0000 C   0  0  0  0  0  0  0  0  0  0  0  0
   -8.2457    0.7763    0.0000 C   0  0  0  0  0  0  0  0  0  0  0  0
   -9.1983    1.0806    0.0000 C   0  0  0  0  0  0  0  0  0  0  0  0
   -9.4167    2.0565    0.0000 C   0  0  0  0  0  0  0  0  0  0  0  0
   -8.6749    2.7349    0.0000 C   0  0  0  0  0  0  0  0  0  0  0  0
   -7.7148    2.4374    0.0000 C   0  0  0  0  0  0  0  0  0  0  0  0
   -7.5040    1.4547    0.0000 C   0  0  0  0  0  0  0  0  0  0  0  0
   -6.5514    1.1503    0.0000 N   0  0  0  0  0  0  0  0  0  0  0  0
   -5.8115    1.8230    0.0000 N   0  0  0  0  0  0  0  0  0  0  0  0
   -4.8590    1.5186    0.0000 C   0  0  0  0  0  0  0  0  0  0  0  0
   -4.6481    0.5357    0.0000 C   0  0  0  0  0  0  0  0  0  0  0  0
   -3.6956    0.2313    0.0000 C   0  0  0  0  0  0  0  0  0  0  0  0
   -2.9517    0.8996    0.0000 C   0  0  0  0  0  0  0  0  0  0  0  0
   -2.0005    0.5910    0.0000 N   0  0  0  0  0  0  0  0  0  0  0  0
   -1.2577    1.2605    0.0000 C   0  0  0  0  0  0  0  0  0  0  0  0
   -1.4660    2.2386    0.0000 O   0  0  0  0  0  0  0  0  0  0  0  0
   -0.3065    0.9519    0.0000 C   0  0  0  0  0  0  0  0  0  0  0  0
    0.0000    0.0000    0.0000 C   0  0  0  0  0  0  0  0  0  0  0  0
    1.0015    0.0000    0.0000 C   0  0  0  0  0  0  0  0  0  0  0  0
    1.3133    0.9519    0.0000 N   0  0  0  0  0  0  0  0  0  0  0  0
    0.5008    1.5428    0.0000 N   0  0  0  0  0  0  0  0  0  0  0  0
    0.4993    2.5428    0.0000 C   0  0  0  0  0  0  0  0  0  0  0  0
   -3.1626    1.8825    0.0000 C   0  0  0  0  0  0  0  0  0  0  0  0
   -2.4187    2.5508    0.0000 C   0  0  0  0  0  0  0  0  0  0  0  0
   -4.1173    2.1969    0.0000 C   0  0  0  0  0  0  0  0  0  0  0  0
  1  2  1  0
  2  7  2  0
  2  3  1  0
  3  4  2  0
  4  5  1  0
  5  6  2  0
  6  7  1  0
  7  8  1  0
  8  9  2  3
  9 10  1  0
 10 25  1  0
 10 11  2  0
 11 12  1  0
 12 13  2  0
 13 14  1  0
 14 15  1  0
 15 16  2  0
 15 17  1  0
 17 21  1  0
 17 18  2  0
 18 19  1  0
 19 20  2  0
 20 21  1  0
 21 22  1  0
 13 23  1  0
 23 24  1  0
 23 25  2  0
M  END
>  <SMILES>  (612) 
Cc1ccccc1N=Nc1ccc(NC(=O)c2ccnn2C)c(C)c1

>  <CollectionName>  (612) 
chembl

>  <LOG PLASMA PROTEIN BINDING (RAT) (% unbound)>  (612) 
-0.769551078622

>  <Internal ID>  (612) 


>  <Source>  (612) 
AstraZeneca

$$$$
CHEMBL1778636
     RDKit          2D

 20 21  0  0  0  0  0  0  0  0999 V2000
   -0.8616    2.5129    0.0000 O   0  0  0  0  0  0  0  0  0  0  0  0
    0.0051    3.0116    0.0000 C   0  0  0  0  0  0  0  0  0  0  0  0
    0.0066    4.0116    0.0000 O   0  0  0  0  0  0  0  0  0  0  0  0
    0.8704    2.5104    0.0000 C   0  0  0  0  0  0  0  0  0  0  0  0
    1.7372    3.0091    0.0000 O   0  0  0  0  0  0  0  0  0  0  0  0
    2.6025    2.5078    0.0000 C   0  0  0  0  0  0  0  0  0  0  0  0
    3.4700    3.0053    0.0000 C   0  0  0  0  0  0  0  0  0  0  0  0
    4.3375    2.5078    0.0000 C   0  0  0  0  0  0  0  0  0  0  0  0
    4.3375    1.5026    0.0000 C   0  0  0  0  0  0  0  0  0  0  0  0
    5.2050    1.0052    0.0000 Cl  0  0  0  0  0  0  0  0  0  0  0  0
    3.4700    0.9949    0.0000 C   0  0  0  0  0  0  0  0  0  0  0  0
    2.6025    1.5026    0.0000 C   0  0  0  0  0  0  0  0  0  0  0  0
    1.7350    1.0052    0.0000 C   0  0  0  0  0  0  0  0  0  0  0  0
    1.7350   -0.0000    0.0000 C   0  0  0  0  0  0  0  0  0  0  0  0
    0.8675   -0.4975    0.0000 C   0  0  0  0  0  0  0  0  0  0  0  0
    0.0000    0.0000    0.0000 C   0  0  0  0  0  0  0  0  0  0  0  0
    0.0000    1.0052    0.0000 C   0  0  0  0  0  0  0  0  0  0  0  0
    0.8675    1.5129    0.0000 C   0  0  0  0  0  0  0  0  0  0  0  0
   -0.8675    1.5026    0.0000 C   0  0  0  0  0  0  0  0  0  0  0  0
   -1.7350    2.0001    0.0000 N   0  0  0  0  0  0  0  0  0  0  0  0
  1  2  1  0
  2  3  2  0
  2  4  1  0
  4  5  1  0
  5  6  1  0
  6 12  2  0
  6  7  1  0
  7  8  2  0
  8  9  1  0
  9 10  1  0
  9 11  2  0
 11 12  1  0
 12 13  1  0
 13 18  1  0
 13 14  2  0
 14 15  1  0
 15 16  2  0
 16 17  1  0
 17 18  2  0
 17 19  1  0
 19 20  3  0
M  END
>  <SMILES>  (613) 
N#Cc1cccc(-c2cc(Cl)ccc2OCC(=O)O)c1

>  <CollectionName>  (613) 
chembl

>  <LOG PLASMA PROTEIN BINDING (RAT) (% unbound)>  (613) 
0.535294120043

>  <Internal ID>  (613) 


>  <Source>  (613) 
AstraZeneca

$$$$
CHEMBL1778639
     RDKit          2D

 27 28  0  0  0  0  0  0  0  0999 V2000
    6.0886    4.4874    0.0000 C   0  0  0  0  0  0  0  0  0  0  0  0
    6.0813    3.4874    0.0000 C   0  0  0  0  0  0  0  0  0  0  0  0
    5.2116    2.9938    0.0000 S   0  0  0  0  0  0  0  0  0  0  0  0
    4.7180    3.8635    0.0000 O   0  0  0  0  0  0  0  0  0  0  0  0
    5.7052    2.1241    0.0000 O   0  0  0  0  0  0  0  0  0  0  0  0
    4.3419    2.5002    0.0000 C   0  0  0  0  0  0  0  0  0  0  0  0
    4.3375    1.4950    0.0000 C   0  0  0  0  0  0  0  0  0  0  0  0
    3.4678    1.0013    0.0000 C   0  0  0  0  0  0  0  0  0  0  0  0
    2.6025    1.5026    0.0000 C   0  0  0  0  0  0  0  0  0  0  0  0
    2.6069    2.5078    0.0000 C   0  0  0  0  0  0  0  0  0  0  0  0
    1.7416    3.0091    0.0000 C   0  0  0  0  0  0  0  0  0  0  0  0
    3.4766    3.0117    0.0000 C   0  0  0  0  0  0  0  0  0  0  0  0
    1.7350    1.0052    0.0000 C   0  0  0  0  0  0  0  0  0  0  0  0
    0.8675    1.5129    0.0000 C   0  0  0  0  0  0  0  0  0  0  0  0
    0.0000    1.0052    0.0000 C   0  0  0  0  0  0  0  0  0  0  0  0
    0.0000    0.0000    0.0000 C   0  0  0  0  0  0  0  0  0  0  0  0
    0.8675   -0.4975    0.0000 C   0  0  0  0  0  0  0  0  0  0  0  0
    1.7350   -0.0000    0.0000 C   0  0  0  0  0  0  0  0  0  0  0  0
    2.6003   -0.5013    0.0000 O   0  0  0  0  0  0  0  0  0  0  0  0
    3.4670   -0.0025    0.0000 C   0  0  0  0  0  0  0  0  0  0  0  0
    4.3323   -0.5038    0.0000 C   0  0  0  0  0  0  0  0  0  0  0  0
    4.3309   -1.5038    0.0000 O   0  0  0  0  0  0  0  0  0  0  0  0
    5.1991   -0.0050    0.0000 O   0  0  0  0  0  0  0  0  0  0  0  0
   -0.8675    1.5026    0.0000 C   0  0  0  0  0  0  0  0  0  0  0  0
   -1.3649    0.6351    0.0000 F   0  0  0  0  0  0  0  0  0  0  0  0
   -0.3701    2.3701    0.0000 F   0  0  0  0  0  0  0  0  0  0  0  0
   -1.7350    2.0001    0.0000 F   0  0  0  0  0  0  0  0  0  0  0  0
  1  2  1  0
  2  3  1  0
  3  4  2  0
  3  5  2  0
  3  6  1  0
  6 12  2  0
  6  7  1  0
  7  8  2  0
  8  9  1  0
  9 10  2  0
 10 11  1  0
 10 12  1  0
  9 13  1  0
 13 18  1  0
 13 14  2  0
 14 15  1  0
 15 16  2  0
 16 17  1  0
 17 18  2  0
 18 19  1  0
 19 20  1  0
 20 21  1  0
 21 22  2  0
 21 23  1  0
 15 24  1  0
 24 25  1  0
 24 26  1  0
 24 27  1  0
M  END
>  <SMILES>  (614) 
CCS(=O)(=O)c1ccc(-c2cc(C(F)(F)F)ccc2OCC(=O)O)c(C)c1

>  <CollectionName>  (614) 
chembl

>  <LOG PLASMA PROTEIN BINDING (RAT) (% unbound)>  (614) 
0.848189116991

>  <Internal ID>  (614) 


>  <Source>  (614) 
AstraZeneca

$$$$
CHEMBL1779512
     RDKit          2D

 33 35  0  0  1  0  0  0  0  0999 V2000
   -0.8645   -4.4975    0.0000 C   0  0  0  0  0  0  0  0  0  0  0  0
   -0.8645   -3.4975    0.0000 O   0  0  0  0  0  0  0  0  0  0  0  0
    0.0015   -2.9975    0.0000 C   0  0  0  0  0  0  0  0  0  0  0  0
    0.0015   -1.9975    0.0000 C   0  0  0  0  0  0  0  0  0  0  0  0
   -0.8645   -1.4975    0.0000 O   0  0  0  0  0  0  0  0  0  0  0  0
    0.8675   -1.4975    0.0000 C   0  0  0  0  0  0  0  0  0  0  0  0
    0.8675   -0.4975    0.0000 N   0  0  0  0  0  0  0  0  0  0  0  0
    0.0000    0.0000    0.0000 C   0  0  0  0  0  0  0  0  0  0  0  0
   -0.8653   -0.5013    0.0000 O   0  0  0  0  0  0  0  0  0  0  0  0
    0.0000    1.0052    0.0000 C   0  0  0  0  0  0  0  0  0  0  0  0
    0.8675    1.5129    0.0000 N   0  0  0  0  0  0  0  0  0  0  0  0
    1.7350    1.0052    0.0000 N   0  0  0  0  0  0  0  0  0  0  0  0
    1.7350    0.0000    0.0000 C   0  0  0  0  0  0  0  0  0  0  0  0
    2.6003   -0.5013    0.0000 O   0  0  0  0  0  0  0  0  0  0  0  0
    2.6025    1.5026    0.0000 C   0  0  0  0  0  0  0  0  0  0  0  0
    3.4700    0.9949    0.0000 C   0  0  0  0  0  0  0  0  0  0  0  0
    4.3376    1.4923    0.0000 C   0  0  0  0  0  0  0  0  0  0  0  0
    4.3464    2.4923    0.0000 C   0  0  0  0  0  0  0  0  0  0  0  0
    5.2161    2.9859    0.0000 Cl  0  0  0  0  0  0  0  0  0  0  0  0
    3.4788    3.0001    0.0000 C   0  0  0  0  0  0  0  0  0  0  0  0
    2.6025    2.5078    0.0000 C   0  0  0  0  0  0  0  0  0  0  0  0
    3.4877    4.0000    0.0000 C   0  0  0  0  0  0  0  0  0  0  0  0
    2.6261    4.5077    0.0000 O   0  0  0  0  0  0  0  0  0  0  0  0
    4.3581    4.4923    0.0000 N   0  0  0  0  0  0  0  0  0  0  0  0
    4.3670    5.4923    0.0000 C   0  0  0  0  0  0  0  0  0  0  0  0
    5.2374    5.9846    0.0000 C   0  0  0  0  0  0  0  0  0  0  0  0
    4.5629    6.7229    0.0000 O   0  0  0  0  0  0  0  0  0  0  0  0
    5.5226    5.0261    0.0000 C   0  0  0  0  0  0  0  0  0  0  0  0
    6.4573    4.6512    0.0000 C   0  0  0  0  0  0  0  0  0  0  0  0
    7.3320    5.1488    0.0000 C   0  0  0  0  0  0  0  0  0  0  0  0
    7.4856    6.1428    0.0000 C   0  0  0  0  0  0  0  0  0  0  0  0
    6.8105    6.8852    0.0000 C   0  0  0  0  0  0  0  0  0  0  0  0
    5.8101    6.8128    0.0000 C   0  0  0  0  0  0  0  0  0  0  0  0
  1  2  1  0
  2  3  1  0
  3  4  1  0
  4  5  1  1
  4  6  1  0
  6  7  1  0
  7 13  1  0
  7  8  1  0
  8  9  2  0
  8 10  1  0
 10 11  2  0
 11 12  1  0
 12 13  1  0
 13 14  2  0
 12 15  1  0
 15 21  1  0
 15 16  2  0
 16 17  1  0
 17 18  2  0
 18 19  1  0
 18 20  1  0
 20 21  2  0
 20 22  1  0
 22 23  2  0
 22 24  1  0
 24 25  1  0
 25 26  1  0
 26 33  1  0
 26 27  1  0
 26 28  1  0
 28 29  1  0
 29 30  1  0
 30 31  1  0
 31 32  1  0
 32 33  1  0
M  END
>  <SMILES>  (615) 
COC[C@@H](O)Cn1c(=O)cnn(-c2ccc(Cl)c(C(=O)NCC3(O)CCCCCC3)c2)c1=O

>  <CollectionName>  (615) 
chembl

>  <LOG PLASMA PROTEIN BINDING (RAT) (% unbound)>  (615) 
1.78368923635

>  <Internal ID>  (615) 


>  <Source>  (615) 
AstraZeneca

$$$$
CHEMBL2338403
     RDKit          2D

 30 33  0  0  0  0  0  0  0  0999 V2000
   -2.5966   -4.4975    0.0000 C   0  0  0  0  0  0  0  0  0  0  0  0
   -1.7306   -3.9975    0.0000 C   0  0  0  0  0  0  0  0  0  0  0  0
   -2.2306   -3.1315    0.0000 C   0  0  0  0  0  0  0  0  0  0  0  0
   -1.2306   -4.8635    0.0000 C   0  0  0  0  0  0  0  0  0  0  0  0
   -0.8645   -3.4975    0.0000 S   0  0  0  0  0  0  0  0  0  0  0  0
   -0.3645   -4.3635    0.0000 O   0  0  0  0  0  0  0  0  0  0  0  0
   -1.3645   -2.6315    0.0000 O   0  0  0  0  0  0  0  0  0  0  0  0
    0.0015   -2.9975    0.0000 C   0  0  0  0  0  0  0  0  0  0  0  0
    0.0015   -1.9975    0.0000 C   0  0  0  0  0  0  0  0  0  0  0  0
    0.8675   -1.4975    0.0000 C   0  0  0  0  0  0  0  0  0  0  0  0
    0.8675   -0.4975    0.0000 N   0  0  0  0  0  0  0  0  0  0  0  0
    0.0000    0.0000    0.0000 C   0  0  0  0  0  0  0  0  0  0  0  0
    0.0000    1.0052    0.0000 C   0  0  0  0  0  0  0  0  0  0  0  0
    0.8675    1.5129    0.0000 N   0  0  0  0  0  0  0  0  0  0  0  0
    0.8675    2.5129    0.0000 C   0  0  0  0  0  0  0  0  0  0  0  0
    1.7335    3.0129    0.0000 C   0  0  0  0  0  0  0  0  0  0  0  0
    2.5996    2.5129    0.0000 O   0  0  0  0  0  0  0  0  0  0  0  0
    1.7335    4.0129    0.0000 N   0  0  0  0  0  0  0  0  0  0  0  0
    2.5996    4.5129    0.0000 C   0  0  0  0  0  0  0  0  0  0  0  0
    3.3816    3.8740    0.0000 C   0  0  0  0  0  0  0  0  0  0  0  0
    4.2794    4.4308    0.0000 C   0  0  0  0  0  0  0  0  0  0  0  0
    5.4921    4.1802    0.0000 C   0  0  0  0  0  0  0  0  0  0  0  0
    4.6834    4.9312    0.0000 C   0  0  0  0  0  0  0  0  0  0  0  0
    4.5004    5.9852    0.0000 C   0  0  0  0  0  0  0  0  0  0  0  0
    3.3547    6.1252    0.0000 C   0  0  0  0  0  0  0  0  0  0  0  0
    4.0797    5.4107    0.0000 C   0  0  0  0  0  0  0  0  0  0  0  0
    2.4280    5.5667    0.0000 C   0  0  0  0  0  0  0  0  0  0  0  0
    3.7248    4.3399    0.0000 C   0  0  0  0  0  0  0  0  0  0  0  0
    1.7350    1.0052    0.0000 C   0  0  0  0  0  0  0  0  0  0  0  0
    1.7350    0.0000    0.0000 C   0  0  0  0  0  0  0  0  0  0  0  0
  1  2  1  0
  2  3  1  0
  2  4  1  0
  2  5  1  0
  5  6  2  0
  5  7  2  0
  5  8  1  0
  8  9  1  0
  9 10  1  0
 10 11  1  0
 11 30  1  0
 11 12  1  0
 12 13  1  0
 13 14  1  0
 14 15  1  0
 15 16  1  0
 16 17  2  0
 16 18  1  0
 18 19  1  0
 19 27  1  0
 19 28  1  0
 19 20  1  0
 20 21  1  0
 21 26  1  0
 21 22  1  0
 22 23  1  0
 23 24  1  0
 24 25  1  0
 25 26  1  0
 25 27  1  0
 23 28  1  0
 14 29  1  0
 29 30  1  0
M  END
>  <SMILES>  (616) 
CC(C)(C)S(=O)(=O)CCCN1CCN(CC(=O)NC23CC4CC(CC(C4)C2)C3)CC1

>  <CollectionName>  (616) 
chembl

>  <LOG PLASMA PROTEIN BINDING (RAT) (% unbound)>  (616) 
1.48967729166

>  <Internal ID>  (616) 


>  <Source>  (616) 
AstraZeneca

$$$$
CHEMBL2312918
     RDKit          2D

 23 25  0  0  1  0  0  0  0  0999 V2000
   -0.4010   -1.0164    0.0000 C   0  0  0  0  0  0  0  0  0  0  0  0
    0.1859   -1.8261    0.0000 C   0  0  0  0  0  0  0  0  0  0  0  0
    1.1805   -1.7228    0.0000 C   0  0  0  0  0  0  0  0  0  0  0  0
    1.5883   -0.8097    0.0000 N   0  0  0  0  0  0  0  0  0  0  0  0
    1.0015   -0.0000    0.0000 C   0  0  0  0  0  0  0  0  0  0  0  0
    0.0000    0.0000    0.0000 C   0  0  0  0  0  0  0  0  0  0  0  0
   -0.3065    0.9519    0.0000 C   0  0  0  0  0  0  0  0  0  0  0  0
    0.5008    1.5428    0.0000 O   0  0  0  0  0  0  0  0  0  0  0  0
    1.3133    0.9519    0.0000 N   0  0  0  0  0  0  0  0  0  0  0  0
    2.5830   -0.7064    0.0000 P   0  0  0  0  0  0  0  0  0  0  0  0
    2.4796    0.2883    0.0000 O   0  0  0  0  0  0  0  0  0  0  0  0
    3.5776   -0.6030    0.0000 C   0  0  0  0  0  0  0  0  0  0  0  0
    3.9848    0.3160    0.0000 C   0  0  0  0  0  0  0  0  0  0  0  0
    4.9795    0.4194    0.0000 C   0  0  0  0  0  0  0  0  0  0  0  0
    5.5711   -0.3869    0.0000 C   0  0  0  0  0  0  0  0  0  0  0  0
    5.1639   -1.3059    0.0000 C   0  0  0  0  0  0  0  0  0  0  0  0
    4.1651   -1.4186    0.0000 C   0  0  0  0  0  0  0  0  0  0  0  0
    2.7638   -2.4470    0.0000 C   0  0  0  0  0  0  0  0  0  0  0  0
    3.6828   -2.8542    0.0000 C   0  0  0  0  0  0  0  0  0  0  0  0
    3.7862   -3.8489    0.0000 C   0  0  0  0  0  0  0  0  0  0  0  0
    2.9799   -4.4405    0.0000 C   0  0  0  0  0  0  0  0  0  0  0  0
    2.0609   -4.0332    0.0000 C   0  0  0  0  0  0  0  0  0  0  0  0
    1.9482   -3.0344    0.0000 C   0  0  0  0  0  0  0  0  0  0  0  0
  1  2  1  0
  2  3  1  0
  3  4  1  0
  4  5  1  0
  5  9  2  0
  5  6  1  0
  6  7  2  0
  7  8  1  0
  8  9  1  0
  4 10  1  0
 10 11  2  0
 10 12  1  0
 12 17  1  0
 12 13  2  0
 13 14  1  0
 14 15  2  0
 15 16  1  0
 16 17  2  0
 10 18  1  0
 18 23  1  0
 18 19  2  0
 19 20  1  0
 20 21  2  0
 21 22  1  0
 22 23  2  0
M  END
>  <SMILES>  (617) 
CCCN(c1ccon1)P(=O)(c1ccccc1)c1ccccc1

>  <CollectionName>  (617) 
chembl

>  <LOG PLASMA PROTEIN BINDING (RAT) (% unbound)>  (617) 
1.17897694729

>  <Internal ID>  (617) 


>  <Source>  (617) 
AstraZeneca

$$$$
CHEMBL2325642
     RDKit          2D

 34 38  0  0  0  0  0  0  0  0999 V2000
   -3.6999    0.2225    0.0000 F   0  0  0  0  0  0  0  0  0  0  0  0
   -3.4915   -0.7556    0.0000 C   0  0  0  0  0  0  0  0  0  0  0  0
   -4.2402   -1.4263    0.0000 C   0  0  0  0  0  0  0  0  0  0  0  0
   -4.0221   -2.4075    0.0000 C   0  0  0  0  0  0  0  0  0  0  0  0
   -3.0650   -2.7148    0.0000 C   0  0  0  0  0  0  0  0  0  0  0  0
   -2.8524   -3.6920    0.0000 F   0  0  0  0  0  0  0  0  0  0  0  0
   -2.3261   -2.0410    0.0000 C   0  0  0  0  0  0  0  0  0  0  0  0
   -2.5345   -1.0629    0.0000 C   0  0  0  0  0  0  0  0  0  0  0  0
   -1.7926   -0.3924    0.0000 O   0  0  0  0  0  0  0  0  0  0  0  0
   -2.0024    0.5854    0.0000 C   0  0  0  0  0  0  0  0  0  0  0  0
   -2.9537    0.8939    0.0000 C   0  0  0  0  0  0  0  0  0  0  0  0
   -3.1677    1.8708    0.0000 C   0  0  0  0  0  0  0  0  0  0  0  0
   -2.4230    2.5459    0.0000 C   0  0  0  0  0  0  0  0  0  0  0  0
   -2.6371    3.5227    0.0000 Cl  0  0  0  0  0  0  0  0  0  0  0  0
   -1.4642    2.2442    0.0000 C   0  0  0  0  0  0  0  0  0  0  0  0
   -1.2577    1.2605    0.0000 C   0  0  0  0  0  0  0  0  0  0  0  0
   -0.3065    0.9519    0.0000 C   0  0  0  0  0  0  0  0  0  0  0  0
    0.0000    0.0000    0.0000 C   0  0  0  0  0  0  0  0  0  0  0  0
    1.0015    0.0000    0.0000 C   0  0  0  0  0  0  0  0  0  0  0  0
    1.3133    0.9519    0.0000 N   0  0  0  0  0  0  0  0  0  0  0  0
    0.5008    1.5428    0.0000 N   0  0  0  0  0  0  0  0  0  0  0  0
    0.4993    2.5428    0.0000 C   0  0  0  0  0  0  0  0  0  0  0  0
   -0.2089    3.2488    0.0000 C   0  0  0  0  0  0  0  0  0  0  0  0
    0.4971    3.9569    0.0000 N   0  0  0  0  0  0  0  0  0  0  0  0
    1.2052    3.2509    0.0000 C   0  0  0  0  0  0  0  0  0  0  0  0
   -4.7610   -3.0813    0.0000 S   0  0  0  0  0  0  0  0  0  0  0  0
   -5.4348   -2.3424    0.0000 O   0  0  0  0  0  0  0  0  0  0  0  0
   -4.0871   -3.8202    0.0000 O   0  0  0  0  0  0  0  0  0  0  0  0
   -5.4998   -3.7551    0.0000 N   0  0  0  0  0  0  0  0  0  0  0  0
   -5.2857   -4.7319    0.0000 C   0  0  0  0  0  0  0  0  0  0  0  0
   -4.3685   -5.1300    0.0000 N   0  0  0  0  0  0  0  0  0  0  0  0
   -4.4664   -6.1267    0.0000 C   0  0  0  0  0  0  0  0  0  0  0  0
   -5.4442   -6.3439    0.0000 N   0  0  0  0  0  0  0  0  0  0  0  0
   -5.9527   -5.4776    0.0000 S   0  0  0  0  0  0  0  0  0  0  0  0
  1  2  1  0
  2  8  2  0
  2  3  1  0
  3  4  2  0
  4  5  1  0
  5  6  1  0
  5  7  2  0
  7  8  1  0
  8  9  1  0
  9 10  1  0
 10 16  1  0
 10 11  2  0
 11 12  1  0
 12 13  2  0
 13 14  1  0
 13 15  1  0
 15 16  2  0
 16 17  1  0
 17 21  1  0
 17 18  2  0
 18 19  1  0
 19 20  2  0
 20 21  1  0
 21 22  1  0
 22 25  1  0
 22 23  1  0
 23 24  1  0
 24 25  1  0
  4 26  1  0
 26 27  2  0
 26 28  2  0
 26 29  1  0
 29 30  1  0
 30 34  1  0
 30 31  2  0
 31 32  1  0
 32 33  2  0
 33 34  1  0
M  END
>  <SMILES>  (618) 
O=S(=O)(Nc1ncns1)c1cc(F)c(Oc2ccc(Cl)cc2-c2ccnn2C2CNC2)cc1F

>  <CollectionName>  (618) 
chembl

>  <LOG PLASMA PROTEIN BINDING (RAT) (% unbound)>  (618) 
0.725911632295

>  <Internal ID>  (618) 


>  <Source>  (618) 
AstraZeneca

$$$$
CHEMBL2326624
     RDKit          2D

 38 42  0  0  1  0  0  0  0  0999 V2000
    0.0012   -1.9973    0.0000 C   0  0  0  0  0  0  0  0  0  0  0  0
    0.8675   -1.4978    0.0000 O   0  0  0  0  0  0  0  0  0  0  0  0
    0.8680   -0.4978    0.0000 C   0  0  0  0  0  0  0  0  0  0  0  0
    0.0000    0.0000    0.0000 C   0  0  0  0  0  0  0  0  0  0  0  0
    0.0000    1.0058    0.0000 C   0  0  0  0  0  0  0  0  0  0  0  0
    0.8680    1.5138    0.0000 C   0  0  0  0  0  0  0  0  0  0  0  0
    1.7360    1.0058    0.0000 C   0  0  0  0  0  0  0  0  0  0  0  0
    1.7360   -0.0012    0.0000 C   0  0  0  0  0  0  0  0  0  0  0  0
    2.6938   -0.3126    0.0000 C   0  0  0  0  0  0  0  0  0  0  0  0
    3.0027   -1.2637    0.0000 N   0  0  0  0  0  0  0  0  0  0  0  0
    3.9808   -1.4717    0.0000 S   0  0  0  0  0  0  0  0  0  0  0  0
    3.7728   -2.4499    0.0000 O   0  0  0  0  0  0  0  0  0  0  0  0
    4.1889   -0.4936    0.0000 O   0  0  0  0  0  0  0  0  0  0  0  0
    4.9589   -1.6798    0.0000 C   0  0  0  0  0  0  0  0  0  0  0  0
    5.3627   -2.5946    0.0000 C   0  0  0  0  0  0  0  0  0  0  0  0
    6.3588   -2.4905    0.0000 C   0  0  0  0  0  0  0  0  0  0  0  0
    6.5700   -1.5114    0.0000 C   0  0  0  0  0  0  0  0  0  0  0  0
    7.4843   -1.1064    0.0000 Cl  0  0  0  0  0  0  0  0  0  0  0  0
    5.7004   -1.0081    0.0000 S   0  0  0  0  0  0  0  0  0  0  0  0
    3.2858    0.5021    0.0000 N   0  0  0  0  0  0  0  0  0  0  0  0
    2.6939    1.3169    0.0000 N   0  0  0  0  0  0  0  0  0  0  0  0
    3.0030    2.2679    0.0000 C   0  0  0  0  0  0  0  0  0  0  0  0
    3.9812    2.4757    0.0000 C   0  0  0  0  0  0  0  0  0  0  0  0
    4.2891    3.4326    0.0000 C   0  0  0  0  0  0  0  0  0  0  0  0
    5.2673    3.6405    0.0000 C   0  0  0  0  0  0  0  0  0  0  0  0
    5.9407    2.9012    0.0000 C   0  0  0  0  0  0  0  0  0  0  0  0
    5.6328    1.9443    0.0000 C   0  0  0  0  0  0  0  0  0  0  0  0
    6.3062    1.2050    0.0000 C   0  0  0  0  0  0  0  0  0  0  0  0
    7.2831    1.4186    0.0000 N   0  0  0  0  0  0  0  0  0  0  0  0
    7.5866    2.3715    0.0000 C   0  0  0  0  0  0  0  0  0  0  0  0
    6.9132    3.1107    0.0000 O   0  0  0  0  0  0  0  0  0  0  0  0
    8.5636    2.5850    0.0000 C   0  0  0  0  0  0  0  0  0  0  0  0
    8.8700    3.5424    0.0000 C   0  0  0  0  0  0  0  0  0  0  0  0
    9.8510    3.7614    0.0000 O   0  0  0  0  0  0  0  0  0  0  0  0
   10.5224    3.0134    0.0000 C   0  0  0  0  0  0  0  0  0  0  0  0
   10.2160    2.0561    0.0000 C   0  0  0  0  0  0  0  0  0  0  0  0
    9.2381    1.8467    0.0000 N   0  0  0  0  0  0  0  0  0  0  0  0
    4.6515    1.7267    0.0000 C   0  0  0  0  0  0  0  0  0  0  0  0
  1  2  1  0
  2  3  1  0
  3  8  2  0
  3  4  1  0
  4  5  2  0
  5  6  1  0
  6  7  2  0
  7 21  1  0
  7  8  1  0
  8  9  1  0
  9 10  1  0
 10 11  1  0
 11 12  2  0
 11 13  2  0
 11 14  1  0
 14 19  1  0
 14 15  2  0
 15 16  1  0
 16 17  2  0
 17 18  1  0
 17 19  1  0
  9 20  2  0
 20 21  1  0
 21 22  1  0
 22 23  1  0
 23 38  1  0
 23 24  2  0
 24 25  1  0
 25 26  2  0
 26 27  1  0
 27 28  1  0
 28 29  1  0
 29 30  1  0
 30 31  2  0
 32 30  1  6
 32 37  1  0
 32 33  1  0
 33 34  1  0
 34 35  1  0
 35 36  1  0
 36 37  1  0
 27 38  2  0
M  END
>  <SMILES>  (619) 
COc1cccc2c1c(NS(=O)(=O)c1ccc(Cl)s1)nn2Cc1cccc(CNC(=O)[C@@H]2COCCN2)c1

>  <CollectionName>  (619) 
chembl

>  <LOG PLASMA PROTEIN BINDING (RAT) (% unbound)>  (619) 
0.193124598354

>  <Internal ID>  (619) 


>  <Source>  (619) 
AstraZeneca

$$$$
CHEMBL2335893
     RDKit          2D

 32 35  0  0  1  0  0  0  0  0999 V2000
   13.0113   -0.4573    0.0000 C   0  0  0  0  0  0  0  0  0  0  0  0
   12.1429    0.0387    0.0000 O   0  0  0  0  0  0  0  0  0  0  0  0
   11.2793   -0.4654    0.0000 C   0  0  0  0  0  0  0  0  0  0  0  0
   10.4109    0.0305    0.0000 C   0  0  0  0  0  0  0  0  0  0  0  0
    9.5472   -0.4736    0.0000 C   0  0  0  0  0  0  0  0  0  0  0  0
    9.5520   -1.4736    0.0000 O   0  0  0  0  0  0  0  0  0  0  0  0
    8.6789    0.0223    0.0000 N   0  0  0  0  0  0  0  0  0  0  0  0
    7.8152   -0.4817    0.0000 C   0  0  0  0  0  0  0  0  0  0  0  0
    7.8199   -1.4817    0.0000 C   0  0  0  0  0  0  0  0  0  0  0  0
    6.9468    0.0142    0.0000 C   0  0  0  0  0  0  0  0  0  0  0  0
    6.9407    1.0142    0.0000 C   0  0  0  0  0  0  0  0  0  0  0  0
    6.0744    1.5139    0.0000 C   0  0  0  0  0  0  0  0  0  0  0  0
    5.2056    1.0084    0.0000 C   0  0  0  0  0  0  0  0  0  0  0  0
    4.3394    1.5082    0.0000 N   0  0  0  0  0  0  0  0  0  0  0  0
    3.4735    1.0079    0.0000 C   0  0  0  0  0  0  0  0  0  0  0  0
    3.4748    0.0023    0.0000 N   0  0  0  0  0  0  0  0  0  0  0  0
    2.6038   -0.4989    0.0000 C   0  0  0  0  0  0  0  0  0  0  0  0
    1.7371   -0.0000    0.0000 C   0  0  0  0  0  0  0  0  0  0  0  0
    0.8679   -0.4977    0.0000 C   0  0  0  0  0  0  0  0  0  0  0  0
    0.0000    0.0000    0.0000 C   0  0  0  0  0  0  0  0  0  0  0  0
    0.0000    1.0056    0.0000 C   0  0  0  0  0  0  0  0  0  0  0  0
    0.8679    1.5135    0.0000 C   0  0  0  0  0  0  0  0  0  0  0  0
    1.7358    1.0056    0.0000 C   0  0  0  0  0  0  0  0  0  0  0  0
    2.6012    1.5123    0.0000 N   0  0  0  0  0  0  0  0  0  0  0  0
   -0.8653   -0.5013    0.0000 C   0  0  0  0  0  0  0  0  0  0  0  0
   -0.8609   -1.5013    0.0000 C   0  0  0  0  0  0  0  0  0  0  0  0
   -1.7307   -2.0052    0.0000 C   0  0  0  0  0  0  0  0  0  0  0  0
   -2.6049   -1.5090    0.0000 N   0  0  0  0  0  0  0  0  0  0  0  0
   -2.6004   -0.5039    0.0000 C   0  0  0  0  0  0  0  0  0  0  0  0
   -1.7306   -0.0000    0.0000 C   0  0  0  0  0  0  0  0  0  0  0  0
    5.2029    0.0033    0.0000 C   0  0  0  0  0  0  0  0  0  0  0  0
    6.0779   -0.4913    0.0000 C   0  0  0  0  0  0  0  0  0  0  0  0
  1  2  1  0
  2  3  1  0
  3  4  1  0
  4  5  1  0
  5  6  2  0
  5  7  1  0
  7  8  1  0
  8  9  1  6
  8 10  1  0
 10 32  2  0
 10 11  1  0
 11 12  2  0
 12 13  1  0
 13 14  1  0
 14 15  1  0
 15 24  1  0
 15 16  2  0
 16 17  1  0
 17 18  2  0
 18 23  1  0
 18 19  1  0
 19 20  2  0
 20 21  1  0
 21 22  2  0
 22 23  1  0
 23 24  2  0
 20 25  1  0
 25 30  1  0
 25 26  2  0
 26 27  1  0
 27 28  2  0
 28 29  1  0
 29 30  2  0
 13 31  2  0
 31 32  1  0
M  END
>  <SMILES>  (620) 
COCCC(=O)N[C@H](C)c1ccc(Nc2ncc3cc(-c4ccncc4)ccc3n2)cc1

>  <CollectionName>  (620) 
chembl

>  <LOG PLASMA PROTEIN BINDING (RAT) (% unbound)>  (620) 
0.650307523132

>  <Internal ID>  (620) 


>  <Source>  (620) 
AstraZeneca

$$$$
CHEMBL1492153
     RDKit          2D

 23 25  0  0  0  0  0  0  0  0999 V2000
   -3.4723    3.0012    0.0000 F   0  0  0  0  0  0  0  0  0  0  0  0
   -2.6070    2.5000    0.0000 C   0  0  0  0  0  0  0  0  0  0  0  0
   -1.7372    3.0039    0.0000 C   0  0  0  0  0  0  0  0  0  0  0  0
   -0.8719    2.5027    0.0000 C   0  0  0  0  0  0  0  0  0  0  0  0
   -0.8675    1.5026    0.0000 C   0  0  0  0  0  0  0  0  0  0  0  0
   -1.7373    0.9987    0.0000 C   0  0  0  0  0  0  0  0  0  0  0  0
   -2.6114    1.4949    0.0000 C   0  0  0  0  0  0  0  0  0  0  0  0
    0.0000    1.0052    0.0000 C   0  0  0  0  0  0  0  0  0  0  0  0
    0.0000    0.0000    0.0000 C   0  0  0  0  0  0  0  0  0  0  0  0
    0.8675   -0.4975    0.0000 C   0  0  0  0  0  0  0  0  0  0  0  0
    1.7350    0.0000    0.0000 N   0  0  0  0  0  0  0  0  0  0  0  0
    1.7350    1.0052    0.0000 C   0  0  0  0  0  0  0  0  0  0  0  0
    0.8675    1.5129    0.0000 N   0  0  0  0  0  0  0  0  0  0  0  0
    2.6025    1.5026    0.0000 N   0  0  0  0  0  0  0  0  0  0  0  0
    2.7111    2.4984    0.0000 C   0  0  0  0  0  0  0  0  0  0  0  0
    3.6910    2.7051    0.0000 C   0  0  0  0  0  0  0  0  0  0  0  0
    4.1004    3.6175    0.0000 Cl  0  0  0  0  0  0  0  0  0  0  0  0
    4.1874    1.8370    0.0000 C   0  0  0  0  0  0  0  0  0  0  0  0
    3.5195    1.0922    0.0000 N   0  0  0  0  0  0  0  0  0  0  0  0
    0.8675   -1.4975    0.0000 C   0  0  0  0  0  0  0  0  0  0  0  0
    1.8675   -1.4975    0.0000 F   0  0  0  0  0  0  0  0  0  0  0  0
   -0.1325   -1.4975    0.0000 F   0  0  0  0  0  0  0  0  0  0  0  0
    0.8675   -2.4975    0.0000 F   0  0  0  0  0  0  0  0  0  0  0  0
  1  2  1  0
  2  7  2  0
  2  3  1  0
  3  4  2  0
  4  5  1  0
  5  6  2  0
  6  7  1  0
  5  8  1  0
  8 13  1  0
  8  9  2  0
  9 10  1  0
 10 11  2  0
 11 12  1  0
 12 13  2  0
 12 14  1  0
 14 19  1  0
 14 15  1  0
 15 16  2  0
 16 17  1  0
 16 18  1  0
 18 19  2  0
 10 20  1  0
 20 21  1  0
 20 22  1  0
 20 23  1  0
M  END
>  <SMILES>  (621) 
Fc1ccc(-c2cc(C(F)(F)F)nc(-n3cc(Cl)cn3)n2)cc1

>  <CollectionName>  (621) 
chembl

>  <LOG PLASMA PROTEIN BINDING (RAT) (% unbound)>  (621) 
-0.318758762624

>  <Internal ID>  (621) 


>  <Source>  (621) 
AstraZeneca

$$$$
CHEMBL1724416
     RDKit          2D

 21 23  0  0  0  0  0  0  0  0999 V2000
   -5.1879   -1.0237    0.0000 C   0  0  0  0  0  0  0  0  0  0  0  0
   -4.3256   -0.5173    0.0000 C   0  0  0  0  0  0  0  0  0  0  0  0
   -3.4552   -1.0097    0.0000 C   0  0  0  0  0  0  0  0  0  0  0  0
   -2.5907   -0.5071    0.0000 C   0  0  0  0  0  0  0  0  0  0  0  0
   -2.5966    0.4981    0.0000 C   0  0  0  0  0  0  0  0  0  0  0  0
   -3.4671    1.0007    0.0000 C   0  0  0  0  0  0  0  0  0  0  0  0
   -4.3316    0.4879    0.0000 C   0  0  0  0  0  0  0  0  0  0  0  0
   -1.7320    1.0007    0.0000 S   0  0  0  0  0  0  0  0  0  0  0  0
   -2.2346    1.8652    0.0000 O   0  0  0  0  0  0  0  0  0  0  0  0
   -1.2295    0.1361    0.0000 O   0  0  0  0  0  0  0  0  0  0  0  0
   -0.8675    1.5032    0.0000 N   0  0  0  0  0  0  0  0  0  0  0  0
   -0.0000    1.0058    0.0000 C   0  0  0  0  0  0  0  0  0  0  0  0
    0.0000    0.0000    0.0000 C   0  0  0  0  0  0  0  0  0  0  0  0
    0.8680   -0.4978    0.0000 C   0  0  0  0  0  0  0  0  0  0  0  0
    1.7360   -0.0012    0.0000 C   0  0  0  0  0  0  0  0  0  0  0  0
    2.6938   -0.3125    0.0000 N   0  0  0  0  0  0  0  0  0  0  0  0
    3.2858    0.5023    0.0000 C   0  0  0  0  0  0  0  0  0  0  0  0
    4.2858    0.5024    0.0000 C   0  0  0  0  0  0  0  0  0  0  0  0
    2.6938    1.3169    0.0000 O   0  0  0  0  0  0  0  0  0  0  0  0
    1.7360    1.0058    0.0000 C   0  0  0  0  0  0  0  0  0  0  0  0
    0.8680    1.5138    0.0000 C   0  0  0  0  0  0  0  0  0  0  0  0
  1  2  1  0
  2  7  2  0
  2  3  1  0
  3  4  2  0
  4  5  1  0
  5  6  2  0
  6  7  1  0
  5  8  1  0
  8  9  2  0
  8 10  2  0
  8 11  1  0
 11 12  1  0
 12 21  1  0
 12 13  2  0
 13 14  1  0
 14 15  2  0
 15 20  1  0
 15 16  1  0
 16 17  2  0
 17 18  1  0
 17 19  1  0
 19 20  1  0
 20 21  2  0
M  END
>  <SMILES>  (622) 
Cc1ccc(S(=O)(=O)Nc2ccc3nc(C)oc3c2)cc1

>  <CollectionName>  (622) 
chembl

>  <LOG PLASMA PROTEIN BINDING (RAT) (% unbound)>  (622) 
0.707570176098

>  <Internal ID>  (622) 


>  <Source>  (622) 
AstraZeneca

$$$$
CHEMBL98406
     RDKit          2D

 11 12  0  0  0  0  0  0  0  0999 V2000
    4.2858    0.5024    0.0000 N   0  0  0  0  0  0  0  0  0  0  0  0
    3.2858    0.5023    0.0000 C   0  0  0  0  0  0  0  0  0  0  0  0
    2.6938   -0.3125    0.0000 N   0  0  0  0  0  0  0  0  0  0  0  0
    1.7360   -0.0012    0.0000 C   0  0  0  0  0  0  0  0  0  0  0  0
    0.8680   -0.4978    0.0000 C   0  0  0  0  0  0  0  0  0  0  0  0
    0.0000    0.0000    0.0000 C   0  0  0  0  0  0  0  0  0  0  0  0
   -0.0000    1.0058    0.0000 C   0  0  0  0  0  0  0  0  0  0  0  0
   -0.8675    1.5032    0.0000 F   0  0  0  0  0  0  0  0  0  0  0  0
    0.8680    1.5138    0.0000 C   0  0  0  0  0  0  0  0  0  0  0  0
    1.7360    1.0058    0.0000 C   0  0  0  0  0  0  0  0  0  0  0  0
    2.6938    1.3169    0.0000 S   0  0  0  0  0  0  0  0  0  0  0  0
  1  2  1  0
  2 11  1  0
  2  3  2  0
  3  4  1  0
  4 10  2  0
  4  5  1  0
  5  6  2  0
  6  7  1  0
  7  8  1  0
  7  9  2  0
  9 10  1  0
 10 11  1  0
M  END
>  <SMILES>  (623) 
Nc1nc2ccc(F)cc2s1

>  <CollectionName>  (623) 
chembl

>  <LOG PLASMA PROTEIN BINDING (RAT) (% unbound)>  (623) 
1.39585037602

>  <Internal ID>  (623) 


>  <Source>  (623) 
AstraZeneca

$$$$
CHEMBL1334692
     RDKit          2D

 22 24  0  0  0  0  0  0  0  0999 V2000
   -0.7722   -2.5306    0.0000 O   0  0  0  0  0  0  0  0  0  0  0  0
   -0.1833   -1.7223    0.0000 C   0  0  0  0  0  0  0  0  0  0  0  0
    0.8110   -1.8282    0.0000 O   0  0  0  0  0  0  0  0  0  0  0  0
   -0.5889   -0.8082    0.0000 C   0  0  0  0  0  0  0  0  0  0  0  0
    0.0000    0.0000    0.0000 C   0  0  0  0  0  0  0  0  0  0  0  0
    1.0015    0.0000    0.0000 C   0  0  0  0  0  0  0  0  0  0  0  0
    1.3133    0.9519    0.0000 N   0  0  0  0  0  0  0  0  0  0  0  0
    0.5008    1.5428    0.0000 N   0  0  0  0  0  0  0  0  0  0  0  0
   -0.3065    0.9519    0.0000 C   0  0  0  0  0  0  0  0  0  0  0  0
   -1.2577    1.2605    0.0000 C   0  0  0  0  0  0  0  0  0  0  0  0
   -1.4675    2.2383    0.0000 C   0  0  0  0  0  0  0  0  0  0  0  0
   -2.4173    2.5510    0.0000 C   0  0  0  0  0  0  0  0  0  0  0  0
   -3.1650    1.8792    0.0000 C   0  0  0  0  0  0  0  0  0  0  0  0
   -4.1148    2.1920    0.0000 Cl  0  0  0  0  0  0  0  0  0  0  0  0
   -2.9628    0.8946    0.0000 C   0  0  0  0  0  0  0  0  0  0  0  0
   -2.0054    0.5887    0.0000 C   0  0  0  0  0  0  0  0  0  0  0  0
    2.2648    1.2596    0.0000 C   0  0  0  0  0  0  0  0  0  0  0  0
    2.4723    2.2431    0.0000 C   0  0  0  0  0  0  0  0  0  0  0  0
    3.4238    2.5508    0.0000 C   0  0  0  0  0  0  0  0  0  0  0  0
    4.1699    1.8850    0.0000 C   0  0  0  0  0  0  0  0  0  0  0  0
    3.9624    0.9014    0.0000 C   0  0  0  0  0  0  0  0  0  0  0  0
    3.0088    0.5837    0.0000 C   0  0  0  0  0  0  0  0  0  0  0  0
  1  2  1  0
  2  3  2  0
  2  4  1  0
  4  5  1  0
  5  9  1  0
  5  6  2  0
  6  7  1  0
  7  8  1  0
  8  9  2  0
  9 10  1  0
 10 16  1  0
 10 11  2  0
 11 12  1  0
 12 13  2  0
 13 14  1  0
 13 15  1  0
 15 16  2  0
  7 17  1  0
 17 22  1  0
 17 18  2  0
 18 19  1  0
 19 20  2  0
 20 21  1  0
 21 22  2  0
M  END
>  <SMILES>  (624) 
O=C(O)Cc1cn(-c2ccccc2)nc1-c1ccc(Cl)cc1

>  <CollectionName>  (624) 
chembl

>  <LOG PLASMA PROTEIN BINDING (RAT) (% unbound)>  (624) 
-0.744727494897

>  <Internal ID>  (624) 


>  <Source>  (624) 
AstraZeneca

$$$$
CHEMBL2207665
     RDKit          2D

 34 36  0  0  1  0  0  0  0  0999 V2000
    0.0000    3.0104    0.0000 C   0  0  0  0  0  0  0  0  0  0  0  0
    0.0000    2.0104    0.0000 N   0  0  0  0  0  0  0  0  0  0  0  0
   -0.8675    1.5027    0.0000 C   0  0  0  0  0  0  0  0  0  0  0  0
   -0.8675    0.4975    0.0000 C   0  0  0  0  0  0  0  0  0  0  0  0
   -1.7328   -0.0038    0.0000 C   0  0  0  0  0  0  0  0  0  0  0  0
   -1.7313   -1.0038    0.0000 O   0  0  0  0  0  0  0  0  0  0  0  0
   -2.5995    0.4950    0.0000 N   0  0  0  0  0  0  0  0  0  0  0  0
   -3.4648   -0.0063    0.0000 C   0  0  0  0  0  0  0  0  0  0  0  0
   -4.3316    0.4925    0.0000 C   0  0  0  0  0  0  0  0  0  0  0  0
   -4.3330    1.4925    0.0000 O   0  0  0  0  0  0  0  0  0  0  0  0
   -5.1969   -0.0088    0.0000 C   0  0  0  0  0  0  0  0  0  0  0  0
   -6.0636    0.4900    0.0000 N   0  0  0  0  0  0  0  0  0  0  0  0
   -6.0710    1.4951    0.0000 C   0  0  0  0  0  0  0  0  0  0  0  0
   -6.9423    1.9964    0.0000 C   0  0  0  0  0  0  0  0  0  0  0  0
   -7.8062    1.4926    0.0000 C   0  0  0  0  0  0  0  0  0  0  0  0
   -7.8076    0.4926    0.0000 C   0  0  0  0  0  0  0  0  0  0  0  0
   -6.9364   -0.0087    0.0000 C   0  0  0  0  0  0  0  0  0  0  0  0
   -8.6729    1.9914    0.0000 O   0  0  0  0  0  0  0  0  0  0  0  0
   -8.6744    2.9914    0.0000 C   0  0  0  0  0  0  0  0  0  0  0  0
   -7.8031    3.4927    0.0000 C   0  0  0  0  0  0  0  0  0  0  0  0
   -7.8045    4.4927    0.0000 C   0  0  0  0  0  0  0  0  0  0  0  0
   -8.6683    4.9965    0.0000 C   0  0  0  0  0  0  0  0  0  0  0  0
   -8.6654    5.9965    0.0000 Cl  0  0  0  0  0  0  0  0  0  0  0  0
   -9.5396    4.4952    0.0000 C   0  0  0  0  0  0  0  0  0  0  0  0
  -10.4034    4.9991    0.0000 Cl  0  0  0  0  0  0  0  0  0  0  0  0
   -9.5470    3.4901    0.0000 C   0  0  0  0  0  0  0  0  0  0  0  0
    0.0000    0.0000    0.0000 C   0  0  0  0  0  0  0  0  0  0  0  0
    0.8675    0.4975    0.0000 C   0  0  0  0  0  0  0  0  0  0  0  0
    0.8675    1.5027    0.0000 C   0  0  0  0  0  0  0  0  0  0  0  0
    1.7350    2.0001    0.0000 O   0  0  0  0  0  0  0  0  0  0  0  0
   -0.0000   -1.7500    0.0000 C   0  0  0  0  0  0  0  0  0  0  0  0
    1.0000   -1.7500    0.0000 F   0  0  0  0  0  0  0  0  0  0  0  0
   -1.0000   -1.7500    0.0000 F   0  0  0  0  0  0  0  0  0  0  0  0
   -0.0000   -2.7500    0.0000 F   0  0  0  0  0  0  0  0  0  0  0  0
  1  2  1  0
  2 29  1  0
  2  3  1  0
  3  4  2  0
  4  5  1  0
  5  6  2  0
  5  7  1  0
  7  8  1  0
  8  9  1  0
  9 10  1  6
  9 11  1  0
 11 12  1  0
 12 17  1  0
 12 13  1  0
 13 14  1  0
 14 15  1  0
 15 16  1  0
 16 17  1  0
 15 18  1  0
 18 19  1  0
 19 26  1  0
 19 20  2  0
 20 21  1  0
 21 22  2  0
 22 23  1  0
 22 24  1  0
 24 25  1  0
 24 26  2  0
  4 27  1  0
 27 28  2  0
 28 29  1  0
 29 30  2  0
 27 31  1  0
 31 32  1  0
 31 33  1  0
 31 34  1  0
M  END
>  <SMILES>  (625) 
Cn1cc(C(=O)NC[C@@H](O)CN2CCC(Oc3ccc(Cl)c(Cl)c3)CC2)c(C(F)(F)F)cc1=O

>  <CollectionName>  (625) 
chembl

>  <LOG PLASMA PROTEIN BINDING (RAT) (% unbound)>  (625) 
1.01283722471

>  <Internal ID>  (625) 


>  <Source>  (625) 
AstraZeneca

$$$$
CHEMBL93124
     RDKit          2D

 18 20  0  0  0  0  0  0  0  0999 V2000
    7.7872   -0.3699    0.0000 C   0  0  0  0  0  0  0  0  0  0  0  0
    7.2909    0.4983    0.0000 N   0  0  0  0  0  0  0  0  0  0  0  0
    6.2910    0.5026    0.0000 C   0  0  0  0  0  0  0  0  0  0  0  0
    5.7871   -0.3672    0.0000 C   0  0  0  0  0  0  0  0  0  0  0  0
    4.7871   -0.3629    0.0000 C   0  0  0  0  0  0  0  0  0  0  0  0
    4.2858    0.5024    0.0000 C   0  0  0  0  0  0  0  0  0  0  0  0
    4.7896    1.3722    0.0000 C   0  0  0  0  0  0  0  0  0  0  0  0
    5.7947    1.3767    0.0000 C   0  0  0  0  0  0  0  0  0  0  0  0
    3.2858    0.5023    0.0000 C   0  0  0  0  0  0  0  0  0  0  0  0
    2.6938   -0.3125    0.0000 N   0  0  0  0  0  0  0  0  0  0  0  0
    1.7360   -0.0012    0.0000 C   0  0  0  0  0  0  0  0  0  0  0  0
    0.8680   -0.4978    0.0000 C   0  0  0  0  0  0  0  0  0  0  0  0
    0.0000    0.0000    0.0000 C   0  0  0  0  0  0  0  0  0  0  0  0
   -0.0000    1.0058    0.0000 C   0  0  0  0  0  0  0  0  0  0  0  0
   -0.8675    1.5032    0.0000 O   0  0  0  0  0  0  0  0  0  0  0  0
    0.8680    1.5138    0.0000 C   0  0  0  0  0  0  0  0  0  0  0  0
    1.7360    1.0058    0.0000 C   0  0  0  0  0  0  0  0  0  0  0  0
    2.6938    1.3169    0.0000 S   0  0  0  0  0  0  0  0  0  0  0  0
  1  2  1  0
  2  3  1  0
  3  8  2  0
  3  4  1  0
  4  5  2  0
  5  6  1  0
  6  7  2  0
  7  8  1  0
  6  9  1  0
  9 18  1  0
  9 10  2  0
 10 11  1  0
 11 17  2  0
 11 12  1  0
 12 13  2  0
 13 14  1  0
 14 15  1  0
 14 16  2  0
 16 17  1  0
 17 18  1  0
M  END
>  <SMILES>  (626) 
CNc1ccc(-c2nc3ccc(O)cc3s2)cc1

>  <CollectionName>  (626) 
chembl

>  <LOG PLASMA PROTEIN BINDING (RAT) (% unbound)>  (626) 
0.26245108973

>  <Internal ID>  (626) 


>  <Source>  (626) 
AstraZeneca

$$$$
CHEMBL397983
     RDKit          2D

 44 48  0  0  1  0  0  0  0  0999 V2000
    7.8159    4.5041    0.0000 C   0  0  0  0  0  0  0  0  0  0  0  0
    6.9478    4.0077    0.0000 C   0  0  0  0  0  0  0  0  0  0  0  0
    6.9437    3.0077    0.0000 O   0  0  0  0  0  0  0  0  0  0  0  0
    6.0756    2.5113    0.0000 C   0  0  0  0  0  0  0  0  0  0  0  0
    6.0744    1.5061    0.0000 C   0  0  0  0  0  0  0  0  0  0  0  0
    5.2063    1.0096    0.0000 C   0  0  0  0  0  0  0  0  0  0  0  0
    4.3394    1.5081    0.0000 C   0  0  0  0  0  0  0  0  0  0  0  0
    4.3406    2.5133    0.0000 C   0  0  0  0  0  0  0  0  0  0  0  0
    5.2087    3.0200    0.0000 C   0  0  0  0  0  0  0  0  0  0  0  0
    3.4735    1.0079    0.0000 N   0  0  0  0  0  0  0  0  0  0  0  0
    2.6012    1.5124    0.0000 C   0  0  0  0  0  0  0  0  0  0  0  0
    2.5985    2.5124    0.0000 O   0  0  0  0  0  0  0  0  0  0  0  0
    1.7358    1.0057    0.0000 C   0  0  0  0  0  0  0  0  0  0  0  0
    0.8679    1.5135    0.0000 C   0  0  0  0  0  0  0  0  0  0  0  0
    0.0000    1.0057    0.0000 C   0  0  0  0  0  0  0  0  0  0  0  0
    0.0000    0.0000    0.0000 C   0  0  0  0  0  0  0  0  0  0  0  0
    0.8679   -0.4978    0.0000 N   0  0  0  0  0  0  0  0  0  0  0  0
    1.7371   -0.0000    0.0000 C   0  0  0  0  0  0  0  0  0  0  0  0
    2.6038   -0.4989    0.0000 N   0  0  0  0  0  0  0  0  0  0  0  0
    3.4748    0.0022    0.0000 C   0  0  0  0  0  0  0  0  0  0  0  0
    4.3408   -0.4979    0.0000 C   0  0  0  0  0  0  0  0  0  0  0  0
    5.2069    0.0020    0.0000 C   0  0  0  0  0  0  0  0  0  0  0  0
    4.3406   -1.4979    0.0000 N   0  0  0  0  0  0  0  0  0  0  0  0
    5.2066   -1.9980    0.0000 C   0  0  0  0  0  0  0  0  0  0  0  0
    6.0727   -1.4981    0.0000 C   0  0  0  0  0  0  0  0  0  0  0  0
    6.9394   -1.9970    0.0000 C   0  0  0  0  0  0  0  0  0  0  0  0
    7.8077   -1.5008    0.0000 C   0  0  0  0  0  0  0  0  0  0  0  0
    7.8093   -0.4956    0.0000 C   0  0  0  0  0  0  0  0  0  0  0  0
    6.9426    0.0134    0.0000 N   0  0  0  0  0  0  0  0  0  0  0  0
    6.0743   -0.4929    0.0000 C   0  0  0  0  0  0  0  0  0  0  0  0
    3.4746   -1.9978    0.0000 C   0  0  0  0  0  0  0  0  0  0  0  0
    3.4744   -2.9978    0.0000 O   0  0  0  0  0  0  0  0  0  0  0  0
    2.6086   -1.4977    0.0000 C   0  0  0  0  0  0  0  0  0  0  0  0
    1.7425   -1.9976    0.0000 C   0  0  0  0  0  0  0  0  0  0  0  0
    0.8758   -1.4987    0.0000 C   0  0  0  0  0  0  0  0  0  0  0  0
    0.0075   -1.9949    0.0000 C   0  0  0  0  0  0  0  0  0  0  0  0
    0.0059   -3.0001    0.0000 C   0  0  0  0  0  0  0  0  0  0  0  0
   -0.8623   -3.4962    0.0000 O   0  0  0  0  0  0  0  0  0  0  0  0
   -0.8669   -4.4961    0.0000 C   0  0  0  0  0  0  0  0  0  0  0  0
    0.1331   -4.5007    0.0000 F   0  0  0  0  0  0  0  0  0  0  0  0
   -1.8668   -4.4916    0.0000 F   0  0  0  0  0  0  0  0  0  0  0  0
   -0.8714   -5.4961    0.0000 F   0  0  0  0  0  0  0  0  0  0  0  0
    0.8726   -3.5091    0.0000 C   0  0  0  0  0  0  0  0  0  0  0  0
    1.7409   -3.0028    0.0000 C   0  0  0  0  0  0  0  0  0  0  0  0
  1  2  1  0
  2  3  1  0
  3  4  1  0
  4  9  2  0
  4  5  1  0
  5  6  2  0
  6  7  1  0
  7  8  2  0
  8  9  1  0
  7 10  1  0
 10 20  1  0
 10 11  1  0
 11 12  2  0
 11 13  1  0
 13 18  2  0
 13 14  1  0
 14 15  2  0
 15 16  1  0
 16 17  2  0
 17 18  1  0
 18 19  1  0
 19 20  2  0
 20 21  1  0
 21 22  1  1
 21 23  1  0
 23 24  1  0
 24 25  1  0
 25 30  1  0
 25 26  2  0
 26 27  1  0
 27 28  2  0
 28 29  1  0
 29 30  2  0
 23 31  1  0
 31 32  2  0
 31 33  1  0
 33 34  1  0
 34 44  1  0
 34 35  2  0
 35 36  1  0
 36 37  2  0
 37 38  1  0
 38 39  1  0
 39 40  1  0
 39 41  1  0
 39 42  1  0
 37 43  1  0
 43 44  2  0
M  END
>  <SMILES>  (627) 
CCOc1ccc(-n2c([C@@H](C)N(Cc3cccnc3)C(=O)Cc3ccc(OC(F)(F)F)cc3)nc3ncccc3c2=O)cc1

>  <CollectionName>  (627) 
chembl

>  <LOG PLASMA PROTEIN BINDING (RAT) (% unbound)>  (627) 
0.466867620354

>  <Internal ID>  (627) 


>  <Source>  (627) 
AstraZeneca

$$$$
CHEMBL1628227
     RDKit          2D

 21 23  0  0  0  0  0  0  0  0999 V2000
    5.4536   -3.5040    0.0000 C   0  0  0  0  0  0  0  0  0  0  0  0
    4.5898   -4.0078    0.0000 N   0  0  0  0  0  0  0  0  0  0  0  0
    4.5942   -5.0078    0.0000 C   0  0  0  0  0  0  0  0  0  0  0  0
    3.7216   -3.5116    0.0000 C   0  0  0  0  0  0  0  0  0  0  0  0
    3.7172   -2.5116    0.0000 C   0  0  0  0  0  0  0  0  0  0  0  0
    2.8490   -2.0154    0.0000 C   0  0  0  0  0  0  0  0  0  0  0  0
    2.8446   -1.0154    0.0000 C   0  0  0  0  0  0  0  0  0  0  0  0
    1.9312   -0.5840    0.0000 C   0  0  0  0  0  0  0  0  0  0  0  0
    1.2003   -1.2778    0.0000 C   0  0  0  0  0  0  0  0  0  0  0  0
    0.2313   -0.9837    0.0000 C   0  0  0  0  0  0  0  0  0  0  0  0
    0.0000    0.0000    0.0000 C   0  0  0  0  0  0  0  0  0  0  0  0
    0.7377    0.6898    0.0000 C   0  0  0  0  0  0  0  0  0  0  0  0
    1.6999    0.3997    0.0000 C   0  0  0  0  0  0  0  0  0  0  0  0
    2.3292    1.1930    0.0000 C   0  0  0  0  0  0  0  0  0  0  0  0
    3.3333    1.1944    0.0000 O   0  0  0  0  0  0  0  0  0  0  0  0
    3.9620    0.4062    0.0000 C   0  0  0  0  0  0  0  0  0  0  0  0
    4.9146    0.7195    0.0000 C   0  0  0  0  0  0  0  0  0  0  0  0
    5.6612    0.0428    0.0000 C   0  0  0  0  0  0  0  0  0  0  0  0
    5.4510   -0.9405    0.0000 C   0  0  0  0  0  0  0  0  0  0  0  0
    4.4941   -1.2472    0.0000 C   0  0  0  0  0  0  0  0  0  0  0  0
    3.7517   -0.5772    0.0000 C   0  0  0  0  0  0  0  0  0  0  0  0
  1  2  1  0
  2  3  1  0
  2  4  1  0
  4  5  1  0
  5  6  1  0
  6  7  2  3
  7 21  1  0
  7  8  1  0
  8 13  2  0
  8  9  1  0
  9 10  2  0
 10 11  1  0
 11 12  2  0
 12 13  1  0
 13 14  1  0
 14 15  1  0
 15 16  1  0
 16 21  2  0
 16 17  1  0
 17 18  2  0
 18 19  1  0
 19 20  2  0
 20 21  1  0
M  END
>  <SMILES>  (628) 
CN(C)CCC=C1c2ccccc2COc2ccccc21

>  <CollectionName>  (628) 
chembl

>  <LOG PLASMA PROTEIN BINDING (RAT) (% unbound)>  (628) 
1.31069331234

>  <Internal ID>  (628) 


>  <Source>  (628) 
AstraZeneca

$$$$
CHEMBL2147226
     RDKit          2D

 34 36  0  0  0  0  0  0  0  0999 V2000
   -1.7439   -4.0254    0.0000 C   0  0  0  0  0  0  0  0  0  0  0  0
   -1.7380   -3.0254    0.0000 O   0  0  0  0  0  0  0  0  0  0  0  0
   -2.6010   -2.5203    0.0000 C   0  0  0  0  0  0  0  0  0  0  0  0
   -2.5921   -1.5152    0.0000 N   0  0  0  0  0  0  0  0  0  0  0  0
   -3.4641   -1.0152    0.0000 C   0  0  0  0  0  0  0  0  0  0  0  0
   -4.3361   -1.5152    0.0000 C   0  0  0  0  0  0  0  0  0  0  0  0
   -4.3361   -2.5152    0.0000 C   0  0  0  0  0  0  0  0  0  0  0  0
   -3.4730   -3.0203    0.0000 N   0  0  0  0  0  0  0  0  0  0  0  0
   -5.2014   -1.0139    0.0000 C   0  0  0  0  0  0  0  0  0  0  0  0
   -6.0712   -1.5178    0.0000 C   0  0  0  0  0  0  0  0  0  0  0  0
   -6.9365   -1.0165    0.0000 C   0  0  0  0  0  0  0  0  0  0  0  0
   -6.9408   -0.0165    0.0000 C   0  0  0  0  0  0  0  0  0  0  0  0
   -6.0710    0.4874    0.0000 C   0  0  0  0  0  0  0  0  0  0  0  0
   -6.0755    1.4874    0.0000 C   0  0  0  0  0  0  0  0  0  0  0  0
   -6.0799    2.4874    0.0000 N   0  0  0  0  0  0  0  0  0  0  0  0
   -5.1969   -0.0088    0.0000 C   0  0  0  0  0  0  0  0  0  0  0  0
   -4.3316    0.4925    0.0000 C   0  0  0  0  0  0  0  0  0  0  0  0
   -3.4648   -0.0063    0.0000 C   0  0  0  0  0  0  0  0  0  0  0  0
   -2.5995    0.4950    0.0000 N   0  0  0  0  0  0  0  0  0  0  0  0
   -1.7328   -0.0038    0.0000 C   0  0  0  0  0  0  0  0  0  0  0  0
   -1.7313   -1.0038    0.0000 O   0  0  0  0  0  0  0  0  0  0  0  0
   -0.8675    0.4975    0.0000 C   0  0  0  0  0  0  0  0  0  0  0  0
    0.0000    0.0000    0.0000 C   0  0  0  0  0  0  0  0  0  0  0  0
    0.8675    0.4975    0.0000 C   0  0  0  0  0  0  0  0  0  0  0  0
    0.8675    1.5027    0.0000 C   0  0  0  0  0  0  0  0  0  0  0  0
    1.7350    2.0001    0.0000 O   0  0  0  0  0  0  0  0  0  0  0  0
    1.7379    3.0001    0.0000 C   0  0  0  0  0  0  0  0  0  0  0  0
    2.6054    3.4976    0.0000 C   0  0  0  0  0  0  0  0  0  0  0  0
    2.6084    4.4976    0.0000 C   0  0  0  0  0  0  0  0  0  0  0  0
    1.6084    4.5005    0.0000 F   0  0  0  0  0  0  0  0  0  0  0  0
    3.6084    4.4946    0.0000 F   0  0  0  0  0  0  0  0  0  0  0  0
    2.6113    5.4976    0.0000 F   0  0  0  0  0  0  0  0  0  0  0  0
    0.0000    2.0104    0.0000 N   0  0  0  0  0  0  0  0  0  0  0  0
   -0.8675    1.5027    0.0000 C   0  0  0  0  0  0  0  0  0  0  0  0
  1  2  1  0
  2  3  1  0
  3  8  2  0
  3  4  1  0
  4  5  2  0
  5  6  1  0
  6  7  2  0
  7  8  1  0
  6  9  1  0
  9 16  1  0
  9 10  2  0
 10 11  1  0
 11 12  2  0
 12 13  1  0
 13 14  1  0
 14 15  3  0
 13 16  2  0
 16 17  1  0
 17 18  1  0
 18 19  1  0
 19 20  1  0
 20 21  2  0
 20 22  1  0
 22 34  1  0
 22 23  2  0
 23 24  1  0
 24 25  2  0
 25 26  1  0
 26 27  1  0
 27 28  1  0
 28 29  1  0
 29 30  1  0
 29 31  1  0
 29 32  1  0
 25 33  1  0
 33 34  2  0
M  END
>  <SMILES>  (629) 
COc1ncc(-c2cccc(C#N)c2CCNC(=O)c2ccc(OCCC(F)(F)F)nc2)cn1

>  <CollectionName>  (629) 
chembl

>  <LOG PLASMA PROTEIN BINDING (RAT) (% unbound)>  (629) 
1.14457420761

>  <Internal ID>  (629) 


>  <Source>  (629) 
AstraZeneca

$$$$
CHEMBL2147474
     RDKit          2D

 32 36  0  0  1  0  0  0  0  0999 V2000
   -4.3345    1.5083    0.0000 C   0  0  0  0  0  0  0  0  0  0  0  0
   -3.4700    1.0058    0.0000 O   0  0  0  0  0  0  0  0  0  0  0  0
   -2.6025    1.5032    0.0000 C   0  0  0  0  0  0  0  0  0  0  0  0
   -1.7350    0.9955    0.0000 C   0  0  0  0  0  0  0  0  0  0  0  0
   -0.8675    1.5032    0.0000 C   0  0  0  0  0  0  0  0  0  0  0  0
   -0.8675    2.5084    0.0000 C   0  0  0  0  0  0  0  0  0  0  0  0
   -1.7350    3.0059    0.0000 C   0  0  0  0  0  0  0  0  0  0  0  0
   -2.6025    2.5084    0.0000 C   0  0  0  0  0  0  0  0  0  0  0  0
   -3.4678    3.0097    0.0000 O   0  0  0  0  0  0  0  0  0  0  0  0
   -4.3346    2.5109    0.0000 C   0  0  0  0  0  0  0  0  0  0  0  0
   -5.1999    3.0122    0.0000 C   0  0  0  0  0  0  0  0  0  0  0  0
   -5.1984    4.0122    0.0000 O   0  0  0  0  0  0  0  0  0  0  0  0
   -6.0666    2.5135    0.0000 C   0  0  0  0  0  0  0  0  0  0  0  0
   -7.0685    2.5138    0.0000 C   0  0  0  0  0  0  0  0  0  0  0  0
   -6.5697    1.6471    0.0000 C   0  0  0  0  0  0  0  0  0  0  0  0
   -0.0000    1.0058    0.0000 N   0  0  0  0  0  0  0  0  0  0  0  0
    0.0000    0.0000    0.0000 C   0  0  0  0  0  0  0  0  0  0  0  0
    0.8680   -0.4978    0.0000 N   0  0  0  0  0  0  0  0  0  0  0  0
    1.7360   -0.0012    0.0000 C   0  0  0  0  0  0  0  0  0  0  0  0
    2.6938   -0.3125    0.0000 C   0  0  0  0  0  0  0  0  0  0  0  0
    3.2858    0.5023    0.0000 C   0  0  0  0  0  0  0  0  0  0  0  0
    2.6938    1.3169    0.0000 S   0  0  0  0  0  0  0  0  0  0  0  0
    1.7360    1.0058    0.0000 C   0  0  0  0  0  0  0  0  0  0  0  0
    0.8680    1.5138    0.0000 C   0  0  0  0  0  0  0  0  0  0  0  0
    0.8680    2.5138    0.0000 O   0  0  0  0  0  0  0  0  0  0  0  0
    4.2858    0.5024    0.0000 C   0  0  0  0  0  0  0  0  0  0  0  0
    4.7871   -0.3629    0.0000 C   0  0  0  0  0  0  0  0  0  0  0  0
    5.7871   -0.3672    0.0000 C   0  0  0  0  0  0  0  0  0  0  0  0
    6.2910    0.5026    0.0000 C   0  0  0  0  0  0  0  0  0  0  0  0
    7.2909    0.4983    0.0000 Cl  0  0  0  0  0  0  0  0  0  0  0  0
    5.7947    1.3767    0.0000 C   0  0  0  0  0  0  0  0  0  0  0  0
    4.7896    1.3722    0.0000 C   0  0  0  0  0  0  0  0  0  0  0  0
  1  2  1  0
  2  3  1  0
  3  8  2  0
  3  4  1  0
  4  5  2  0
  5  6  1  0
  6  7  2  0
  7  8  1  0
  8  9  1  0
  9 10  1  0
 10 11  1  0
 11 12  1  1
 11 13  1  0
 13 15  1  0
 13 14  1  0
 14 15  1  0
  5 16  1  0
 16 24  1  0
 16 17  1  0
 17 18  2  0
 18 19  1  0
 19 23  2  0
 19 20  1  0
 20 21  2  0
 21 22  1  0
 22 23  1  0
 23 24  1  0
 24 25  2  0
 21 26  1  0
 26 32  1  0
 26 27  2  0
 27 28  1  0
 28 29  2  0
 29 30  1  0
 29 31  1  0
 31 32  2  0
M  END
>  <SMILES>  (630) 
COc1cc(-n2cnc3cc(-c4ccc(Cl)cc4)sc3c2=O)ccc1OC[C@H](O)C1CC1

>  <CollectionName>  (630) 
chembl

>  <LOG PLASMA PROTEIN BINDING (RAT) (% unbound)>  (630) 
0.0755469613925

>  <Internal ID>  (630) 


>  <Source>  (630) 
AstraZeneca

$$$$
CHEMBL2151326
     RDKit          2D

 28 31  0  0  1  0  0  0  0  0999 V2000
    1.2342    4.7421    0.0000 C   0  0  0  0  0  0  0  0  0  0  0  0
    0.2401    4.8509    0.0000 O   0  0  0  0  0  0  0  0  0  0  0  0
   -0.3511    4.0444    0.0000 C   0  0  0  0  0  0  0  0  0  0  0  0
   -0.0446    3.0909    0.0000 C   0  0  0  0  0  0  0  0  0  0  0  0
   -0.8570    2.5078    0.0000 C   0  0  0  0  0  0  0  0  0  0  0  0
   -0.8596    1.5078    0.0000 N   0  0  0  0  0  0  0  0  0  0  0  0
    0.0051    1.0055    0.0000 C   0  0  0  0  0  0  0  0  0  0  0  0
    0.8736    1.5067    0.0000 N   0  0  0  0  0  0  0  0  0  0  0  0
    1.7426    0.9968    0.0000 C   0  0  0  0  0  0  0  0  0  0  0  0
    1.7361   -0.0079    0.0000 C   0  0  0  0  0  0  0  0  0  0  0  0
    0.8635   -0.5043    0.0000 C   0  0  0  0  0  0  0  0  0  0  0  0
    0.0000    0.0000    0.0000 C   0  0  0  0  0  0  0  0  0  0  0  0
   -0.8685   -0.4956    0.0000 F   0  0  0  0  0  0  0  0  0  0  0  0
    2.6894   -0.3248    0.0000 N   0  0  0  0  0  0  0  0  0  0  0  0
    3.2854    0.4841    0.0000 C   0  0  0  0  0  0  0  0  0  0  0  0
    2.7001    1.3007    0.0000 N   0  0  0  0  0  0  0  0  0  0  0  0
    3.0154    2.2497    0.0000 C   0  0  0  0  0  0  0  0  0  0  0  0
    2.3512    2.9973    0.0000 C   0  0  0  0  0  0  0  0  0  0  0  0
    1.3717    2.7958    0.0000 O   0  0  0  0  0  0  0  0  0  0  0  0
    3.9949    2.4511    0.0000 C   0  0  0  0  0  0  0  0  0  0  0  0
    4.3091    3.4060    0.0000 C   0  0  0  0  0  0  0  0  0  0  0  0
    5.2886    3.6074    0.0000 C   0  0  0  0  0  0  0  0  0  0  0  0
    5.9572    2.8637    0.0000 C   0  0  0  0  0  0  0  0  0  0  0  0
    6.9358    3.0695    0.0000 F   0  0  0  0  0  0  0  0  0  0  0  0
    5.6430    1.9089    0.0000 C   0  0  0  0  0  0  0  0  0  0  0  0
    4.6603    1.6977    0.0000 N   0  0  0  0  0  0  0  0  0  0  0  0
   -1.6666    3.0955    0.0000 N   0  0  0  0  0  0  0  0  0  0  0  0
   -1.3528    4.0498    0.0000 N   0  0  0  0  0  0  0  0  0  0  0  0
  1  2  1  0
  2  3  1  0
  3 28  1  0
  3  4  2  0
  4  5  1  0
  5  6  1  0
  6  7  1  0
  7 12  1  0
  7  8  2  0
  8  9  1  0
  9 16  1  0
  9 10  2  0
 10 11  1  0
 11 12  2  0
 12 13  1  0
 10 14  1  0
 14 15  2  0
 15 16  1  0
 16 17  1  0
 17 18  1  1
 18 19  1  0
 17 20  1  0
 20 26  1  0
 20 21  2  0
 21 22  1  0
 22 23  2  0
 23 24  1  0
 23 25  1  0
 25 26  2  0
  5 27  2  0
 27 28  1  0
M  END
>  <SMILES>  (631) 
COc1cc(Nc2nc3c(cc2F)ncn3[C@@H](CO)c2ccc(F)cn2)n[nH]1

>  <CollectionName>  (631) 
chembl

>  <LOG PLASMA PROTEIN BINDING (RAT) (% unbound)>  (631) 
1.56264967221

>  <Internal ID>  (631) 


>  <Source>  (631) 
AstraZeneca

$$$$
CHEMBL2158772
     RDKit          2D

 34 37  0  0  1  0  0  0  0  0999 V2000
   -2.6033    4.5091    0.0000 C   0  0  0  0  0  0  0  0  0  0  0  0
   -1.7380    5.0104    0.0000 C   0  0  0  0  0  0  0  0  0  0  0  0
   -1.7381    6.0105    0.0000 C   0  0  0  0  0  0  0  0  0  0  0  0
   -0.8750    6.5155    0.0000 C   0  0  0  0  0  0  0  0  0  0  0  0
   -0.0030    6.0155    0.0000 C   0  0  0  0  0  0  0  0  0  0  0  0
    0.0059    5.0104    0.0000 C   0  0  0  0  0  0  0  0  0  0  0  0
   -0.8660    4.5104    0.0000 C   0  0  0  0  0  0  0  0  0  0  0  0
   -0.8660    3.5104    0.0000 C   0  0  0  0  0  0  0  0  0  0  0  0
   -0.0000    3.0104    0.0000 C   0  0  0  0  0  0  0  0  0  0  0  0
   -0.0000    2.0104    0.0000 N   0  0  0  0  0  0  0  0  0  0  0  0
   -0.8675    1.5027    0.0000 C   0  0  0  0  0  0  0  0  0  0  0  0
   -0.8675    0.4975    0.0000 C   0  0  0  0  0  0  0  0  0  0  0  0
    0.0000    0.0000    0.0000 C   0  0  0  0  0  0  0  0  0  0  0  0
    0.0000   -1.0000    0.0000 C   0  0  0  0  0  0  0  0  0  0  0  0
    0.8660   -1.5000    0.0000 N   0  0  0  0  0  0  0  0  0  0  0  0
    0.8720   -2.5051    0.0000 C   0  0  0  0  0  0  0  0  0  0  0  0
    1.7425   -3.0077    0.0000 C   0  0  0  0  0  0  0  0  0  0  0  0
    2.6071   -2.5052    0.0000 C   0  0  0  0  0  0  0  0  0  0  0  0
    2.6100   -1.5052    0.0000 C   0  0  0  0  0  0  0  0  0  0  0  0
    1.7395   -1.0026    0.0000 C   0  0  0  0  0  0  0  0  0  0  0  0
    3.4731   -3.0052    0.0000 O   0  0  0  0  0  0  0  0  0  0  0  0
    3.4731   -4.0052    0.0000 C   0  0  0  0  0  0  0  0  0  0  0  0
    2.6011   -4.5052    0.0000 C   0  0  0  0  0  0  0  0  0  0  0  0
    2.6011   -5.5053    0.0000 C   0  0  0  0  0  0  0  0  0  0  0  0
    3.4642   -6.0103    0.0000 C   0  0  0  0  0  0  0  0  0  0  0  0
    3.4598   -7.0103    0.0000 Cl  0  0  0  0  0  0  0  0  0  0  0  0
    4.3362   -5.5103    0.0000 C   0  0  0  0  0  0  0  0  0  0  0  0
    5.1992   -6.0154    0.0000 Cl  0  0  0  0  0  0  0  0  0  0  0  0
    4.3451   -4.5052    0.0000 C   0  0  0  0  0  0  0  0  0  0  0  0
    0.8675    0.4975    0.0000 C   0  0  0  0  0  0  0  0  0  0  0  0
    0.8675    1.5027    0.0000 C   0  0  0  0  0  0  0  0  0  0  0  0
    0.8660    3.5104    0.0000 C   0  0  0  0  0  0  0  0  0  0  0  0
    1.7321    3.0104    0.0000 O   0  0  0  0  0  0  0  0  0  0  0  0
    0.8660    4.5104    0.0000 O   0  0  0  0  0  0  0  0  0  0  0  0
  1  2  1  0
  2  7  2  0
  2  3  1  0
  3  4  2  0
  4  5  1  0
  5  6  2  0
  6  7  1  0
  7  8  1  0
  9  8  1  1
  9 10  1  0
 10 31  1  0
 10 11  1  0
 11 12  1  0
 12 13  1  0
 13 14  1  0
 14 15  1  0
 15 20  1  0
 15 16  1  0
 16 17  1  0
 17 18  1  0
 18 19  1  0
 19 20  1  0
 18 21  1  0
 21 22  1  0
 22 29  1  0
 22 23  2  0
 23 24  1  0
 24 25  2  0
 25 26  1  0
 25 27  1  0
 27 28  1  0
 27 29  2  0
 13 30  1  0
 30 31  1  0
  9 32  1  0
 32 33  2  0
 32 34  1  0
M  END
>  <SMILES>  (632) 
Cc1ccccc1C[C@@H](C(=O)O)N1CCC(CN2CCC(Oc3ccc(Cl)c(Cl)c3)CC2)CC1

>  <CollectionName>  (632) 
chembl

>  <LOG PLASMA PROTEIN BINDING (RAT) (% unbound)>  (632) 
1.04844180355

>  <Internal ID>  (632) 


>  <Source>  (632) 
AstraZeneca

$$$$
CHEMBL2164043
     RDKit          2D

 35 38  0  0  1  0  0  0  0  0999 V2000
    8.7910   -1.3560    0.0000 F   0  0  0  0  0  0  0  0  0  0  0  0
    7.7910   -1.3604    0.0000 C   0  0  0  0  0  0  0  0  0  0  0  0
    7.2910   -2.2325    0.0000 C   0  0  0  0  0  0  0  0  0  0  0  0
    6.2859   -2.2414    0.0000 N   0  0  0  0  0  0  0  0  0  0  0  0
    5.7859   -1.3695    0.0000 C   0  0  0  0  0  0  0  0  0  0  0  0
    4.7859   -1.3695    0.0000 C   0  0  0  0  0  0  0  0  0  0  0  0
    4.2858   -0.5035    0.0000 C   0  0  0  0  0  0  0  0  0  0  0  0
    3.2858   -0.5036    0.0000 N   0  0  0  0  0  0  0  0  0  0  0  0
    2.6938    0.3110    0.0000 C   0  0  0  0  0  0  0  0  0  0  0  0
    3.0029    1.2620    0.0000 C   0  0  0  0  0  0  0  0  0  0  0  0
    2.3337    2.0052    0.0000 O   0  0  0  0  0  0  0  0  0  0  0  0
    3.9810    1.4699    0.0000 N   0  0  0  0  0  0  0  0  0  0  0  0
    4.2901    2.4210    0.0000 C   0  0  0  0  0  0  0  0  0  0  0  0
    5.2682    2.6288    0.0000 C   0  0  0  0  0  0  0  0  0  0  0  0
    5.9386    1.8798    0.0000 C   0  0  0  0  0  0  0  0  0  0  0  0
    6.9168    2.0877    0.0000 C   0  0  0  0  0  0  0  0  0  0  0  0
    7.2314    3.0369    0.0000 C   0  0  0  0  0  0  0  0  0  0  0  0
    8.2105    3.2405    0.0000 F   0  0  0  0  0  0  0  0  0  0  0  0
    6.5610    3.7859    0.0000 C   0  0  0  0  0  0  0  0  0  0  0  0
    6.8757    4.7351    0.0000 O   0  0  0  0  0  0  0  0  0  0  0  0
    6.2110    5.4822    0.0000 C   0  0  0  0  0  0  0  0  0  0  0  0
    5.4639    4.8175    0.0000 F   0  0  0  0  0  0  0  0  0  0  0  0
    6.9581    6.1470    0.0000 F   0  0  0  0  0  0  0  0  0  0  0  0
    5.5463    6.2293    0.0000 F   0  0  0  0  0  0  0  0  0  0  0  0
    5.5760    3.5857    0.0000 C   0  0  0  0  0  0  0  0  0  0  0  0
    1.7360   -0.0000    0.0000 C   0  0  0  0  0  0  0  0  0  0  0  0
    0.8680    0.5079    0.0000 C   0  0  0  0  0  0  0  0  0  0  0  0
    0.0000    0.0000    0.0000 C   0  0  0  0  0  0  0  0  0  0  0  0
    0.0000   -1.0058    0.0000 C   0  0  0  0  0  0  0  0  0  0  0  0
    0.8680   -1.5037    0.0000 C   0  0  0  0  0  0  0  0  0  0  0  0
    1.7360   -1.0071    0.0000 C   0  0  0  0  0  0  0  0  0  0  0  0
    2.6938   -1.3184    0.0000 C   0  0  0  0  0  0  0  0  0  0  0  0
    3.0028   -2.2695    0.0000 O   0  0  0  0  0  0  0  0  0  0  0  0
    6.2858   -0.4974    0.0000 N   0  0  0  0  0  0  0  0  0  0  0  0
    7.2859   -0.4973    0.0000 C   0  0  0  0  0  0  0  0  0  0  0  0
  1  2  1  0
  2 35  2  0
  2  3  1  0
  3  4  2  0
  4  5  1  0
  5  6  1  0
  6  7  1  0
  7  8  1  0
  8 32  1  0
  8  9  1  0
  9 10  1  0
 10 11  2  0
 10 12  1  0
 12 13  1  0
 13 14  1  0
 14 25  1  0
 14 15  2  0
 15 16  1  0
 16 17  2  0
 17 18  1  0
 17 19  1  0
 19 20  1  0
 20 21  1  0
 21 22  1  0
 21 23  1  0
 21 24  1  0
 19 25  2  0
  9 26  1  0
 26 31  1  0
 26 27  2  0
 27 28  1  0
 28 29  2  0
 29 30  1  0
 30 31  2  0
 31 32  1  0
 32 33  2  0
  5 34  2  0
 34 35  1  0
M  END
>  <SMILES>  (633) 
O=C(NCc1ccc(F)c(OC(F)(F)F)c1)C1c2ccccc2C(=O)N1CCc1ncc(F)cn1

>  <CollectionName>  (633) 
chembl

>  <LOG PLASMA PROTEIN BINDING (RAT) (% unbound)>  (633) 
0.994756944588

>  <Internal ID>  (633) 


>  <Source>  (633) 
AstraZeneca

$$$$
CHEMBL2164366
     RDKit          2D

 34 37  0  0  1  0  0  0  0  0999 V2000
    8.7910   -1.3560    0.0000 F   0  0  0  0  0  0  0  0  0  0  0  0
    7.7910   -1.3604    0.0000 C   0  0  0  0  0  0  0  0  0  0  0  0
    7.2910   -2.2325    0.0000 C   0  0  0  0  0  0  0  0  0  0  0  0
    6.2859   -2.2414    0.0000 N   0  0  0  0  0  0  0  0  0  0  0  0
    5.7859   -1.3695    0.0000 C   0  0  0  0  0  0  0  0  0  0  0  0
    4.7859   -1.3695    0.0000 C   0  0  0  0  0  0  0  0  0  0  0  0
    4.2858   -0.5035    0.0000 C   0  0  0  0  0  0  0  0  0  0  0  0
    3.2858   -0.5036    0.0000 N   0  0  0  0  0  0  0  0  0  0  0  0
    2.6938    0.3110    0.0000 C   0  0  0  0  0  0  0  0  0  0  0  0
    3.0029    1.2620    0.0000 C   0  0  0  0  0  0  0  0  0  0  0  0
    2.3337    2.0052    0.0000 O   0  0  0  0  0  0  0  0  0  0  0  0
    3.9810    1.4699    0.0000 N   0  0  0  0  0  0  0  0  0  0  0  0
    4.2901    2.4210    0.0000 C   0  0  0  0  0  0  0  0  0  0  0  0
    5.2682    2.6288    0.0000 C   0  0  0  0  0  0  0  0  0  0  0  0
    5.9384    1.8866    0.0000 C   0  0  0  0  0  0  0  0  0  0  0  0
    6.9175    2.0903    0.0000 C   0  0  0  0  0  0  0  0  0  0  0  0
    7.2295    3.0458    0.0000 C   0  0  0  0  0  0  0  0  0  0  0  0
    8.2086    3.2494    0.0000 O   0  0  0  0  0  0  0  0  0  0  0  0
    8.5218    4.1990    0.0000 C   0  0  0  0  0  0  0  0  0  0  0  0
    7.5722    4.5123    0.0000 F   0  0  0  0  0  0  0  0  0  0  0  0
    9.4715    3.8858    0.0000 F   0  0  0  0  0  0  0  0  0  0  0  0
    8.8351    5.1487    0.0000 F   0  0  0  0  0  0  0  0  0  0  0  0
    6.5625    3.7977    0.0000 C   0  0  0  0  0  0  0  0  0  0  0  0
    5.5803    3.5844    0.0000 C   0  0  0  0  0  0  0  0  0  0  0  0
    1.7360   -0.0000    0.0000 C   0  0  0  0  0  0  0  0  0  0  0  0
    0.8680    0.5079    0.0000 C   0  0  0  0  0  0  0  0  0  0  0  0
    0.0000    0.0000    0.0000 C   0  0  0  0  0  0  0  0  0  0  0  0
    0.0000   -1.0058    0.0000 C   0  0  0  0  0  0  0  0  0  0  0  0
    0.8680   -1.5037    0.0000 C   0  0  0  0  0  0  0  0  0  0  0  0
    1.7360   -1.0071    0.0000 C   0  0  0  0  0  0  0  0  0  0  0  0
    2.6938   -1.3184    0.0000 C   0  0  0  0  0  0  0  0  0  0  0  0
    3.0028   -2.2695    0.0000 O   0  0  0  0  0  0  0  0  0  0  0  0
    6.2858   -0.4974    0.0000 N   0  0  0  0  0  0  0  0  0  0  0  0
    7.2859   -0.4973    0.0000 C   0  0  0  0  0  0  0  0  0  0  0  0
  1  2  1  0
  2 34  2  0
  2  3  1  0
  3  4  2  0
  4  5  1  0
  5  6  1  0
  6  7  1  0
  7  8  1  0
  8 31  1  0
  8  9  1  0
  9 10  1  0
 10 11  2  0
 10 12  1  0
 12 13  1  0
 13 14  1  0
 14 24  1  0
 14 15  2  0
 15 16  1  0
 16 17  2  0
 17 18  1  0
 18 19  1  0
 19 20  1  0
 19 21  1  0
 19 22  1  0
 17 23  1  0
 23 24  2  0
  9 25  1  0
 25 30  1  0
 25 26  2  0
 26 27  1  0
 27 28  2  0
 28 29  1  0
 29 30  2  0
 30 31  1  0
 31 32  2  0
  5 33  2  0
 33 34  1  0
M  END
>  <SMILES>  (634) 
O=C(NCc1ccc(OC(F)(F)F)cc1)C1c2ccccc2C(=O)N1CCc1ncc(F)cn1

>  <CollectionName>  (634) 
chembl

>  <LOG PLASMA PROTEIN BINDING (RAT) (% unbound)>  (634) 
0.967547976219

>  <Internal ID>  (634) 


>  <Source>  (634) 
AstraZeneca

$$$$
CHEMBL2164372
     RDKit          2D

 31 34  0  0  1  0  0  0  0  0999 V2000
    7.5722    4.5123    0.0000 F   0  0  0  0  0  0  0  0  0  0  0  0
    8.5218    4.1990    0.0000 C   0  0  0  0  0  0  0  0  0  0  0  0
    9.4715    3.8858    0.0000 F   0  0  0  0  0  0  0  0  0  0  0  0
    8.8351    5.1487    0.0000 F   0  0  0  0  0  0  0  0  0  0  0  0
    8.2086    3.2494    0.0000 O   0  0  0  0  0  0  0  0  0  0  0  0
    7.2295    3.0458    0.0000 C   0  0  0  0  0  0  0  0  0  0  0  0
    6.9175    2.0903    0.0000 C   0  0  0  0  0  0  0  0  0  0  0  0
    5.9384    1.8866    0.0000 C   0  0  0  0  0  0  0  0  0  0  0  0
    5.2682    2.6288    0.0000 C   0  0  0  0  0  0  0  0  0  0  0  0
    4.2901    2.4210    0.0000 C   0  0  0  0  0  0  0  0  0  0  0  0
    3.9810    1.4699    0.0000 N   0  0  0  0  0  0  0  0  0  0  0  0
    3.0029    1.2620    0.0000 C   0  0  0  0  0  0  0  0  0  0  0  0
    2.3337    2.0052    0.0000 O   0  0  0  0  0  0  0  0  0  0  0  0
    2.6938    0.3110    0.0000 C   0  0  0  0  0  0  0  0  0  0  0  0
    3.2858   -0.5036    0.0000 N   0  0  0  0  0  0  0  0  0  0  0  0
    4.2858   -0.5035    0.0000 C   0  0  0  0  0  0  0  0  0  0  0  0
    4.7859   -1.3695    0.0000 C   0  0  0  0  0  0  0  0  0  0  0  0
    5.7819   -1.4751    0.0000 C   0  0  0  0  0  0  0  0  0  0  0  0
    5.9916   -2.4544    0.0000 C   0  0  0  0  0  0  0  0  0  0  0  0
    5.1250   -2.9534    0.0000 C   0  0  0  0  0  0  0  0  0  0  0  0
    4.3782   -2.2877    0.0000 O   0  0  0  0  0  0  0  0  0  0  0  0
    2.6938   -1.3184    0.0000 C   0  0  0  0  0  0  0  0  0  0  0  0
    3.0028   -2.2695    0.0000 O   0  0  0  0  0  0  0  0  0  0  0  0
    1.7360   -1.0071    0.0000 C   0  0  0  0  0  0  0  0  0  0  0  0
    0.8680   -1.5037    0.0000 C   0  0  0  0  0  0  0  0  0  0  0  0
    0.0000   -1.0058    0.0000 C   0  0  0  0  0  0  0  0  0  0  0  0
    0.0000    0.0000    0.0000 C   0  0  0  0  0  0  0  0  0  0  0  0
    0.8680    0.5079    0.0000 C   0  0  0  0  0  0  0  0  0  0  0  0
    1.7360   -0.0000    0.0000 C   0  0  0  0  0  0  0  0  0  0  0  0
    5.5803    3.5844    0.0000 C   0  0  0  0  0  0  0  0  0  0  0  0
    6.5625    3.7977    0.0000 C   0  0  0  0  0  0  0  0  0  0  0  0
  1  2  1  0
  2  3  1  0
  2  4  1  0
  2  5  1  0
  5  6  1  0
  6 31  2  0
  6  7  1  0
  7  8  2  0
  8  9  1  0
  9 10  1  0
 10 11  1  0
 11 12  1  0
 12 13  2  0
 12 14  1  0
 14 29  1  0
 14 15  1  0
 15 16  1  0
 17 16  1  6
 17 21  1  0
 17 18  1  0
 18 19  1  0
 19 20  1  0
 20 21  1  0
 15 22  1  0
 22 23  2  0
 22 24  1  0
 24 29  2  0
 24 25  1  0
 25 26  2  0
 26 27  1  0
 27 28  2  0
 28 29  1  0
  9 30  2  0
 30 31  1  0
M  END
>  <SMILES>  (635) 
O=C(NCc1ccc(OC(F)(F)F)cc1)C1c2ccccc2C(=O)N1C[C@@H]1CCCO1

>  <CollectionName>  (635) 
chembl

>  <LOG PLASMA PROTEIN BINDING (RAT) (% unbound)>  (635) 
0.782472624166

>  <Internal ID>  (635) 


>  <Source>  (635) 
AstraZeneca

$$$$
CHEMBL2165066
     RDKit          2D

 35 39  0  0  1  0  0  0  0  0999 V2000
    1.7589    6.0292    0.0000 F   0  0  0  0  0  0  0  0  0  0  0  0
    2.6227    5.5254    0.0000 C   0  0  0  0  0  0  0  0  0  0  0  0
    2.6198    4.5202    0.0000 C   0  0  0  0  0  0  0  0  0  0  0  0
    3.4858    4.0100    0.0000 N   0  0  0  0  0  0  0  0  0  0  0  0
    3.4829    3.0100    0.0000 C   0  0  0  0  0  0  0  0  0  0  0  0
    2.6154    2.5125    0.0000 C   0  0  0  0  0  0  0  0  0  0  0  0
    2.6125    1.5125    0.0000 N   0  0  0  0  0  0  0  0  0  0  0  0
    3.4848    1.0014    0.0000 C   0  0  0  0  0  0  0  0  0  0  0  0
    4.3535    1.4968    0.0000 O   0  0  0  0  0  0  0  0  0  0  0  0
    3.4805   -0.0073    0.0000 C   0  0  0  0  0  0  0  0  0  0  0  0
    2.6039   -0.5053    0.0000 C   0  0  0  0  0  0  0  0  0  0  0  0
    1.7371   -0.0000    0.0000 C   0  0  0  0  0  0  0  0  0  0  0  0
    0.8707   -0.4993    0.0000 C   0  0  0  0  0  0  0  0  0  0  0  0
    0.0000    0.0000    0.0000 C   0  0  0  0  0  0  0  0  0  0  0  0
    0.0000    1.0089    0.0000 C   0  0  0  0  0  0  0  0  0  0  0  0
    0.8707    1.5185    0.0000 C   0  0  0  0  0  0  0  0  0  0  0  0
    1.7414    1.0089    0.0000 C   0  0  0  0  0  0  0  0  0  0  0  0
   -0.8675    1.5063    0.0000 C   0  0  0  0  0  0  0  0  0  0  0  0
   -1.7350    2.0038    0.0000 N   0  0  0  0  0  0  0  0  0  0  0  0
    4.3548    4.5151    0.0000 C   0  0  0  0  0  0  0  0  0  0  0  0
    4.3577    5.5203    0.0000 C   0  0  0  0  0  0  0  0  0  0  0  0
    3.4917    6.0204    0.0000 C   0  0  0  0  0  0  0  0  0  0  0  0
    3.4946    7.0204    0.0000 N   0  0  0  0  0  0  0  0  0  0  0  0
    2.6300    7.5229    0.0000 C   0  0  0  0  0  0  0  0  0  0  0  0
    2.6329    8.5229    0.0000 C   0  0  0  0  0  0  0  0  0  0  0  0
    1.7642    9.0295    0.0000 C   0  0  0  0  0  0  0  0  0  0  0  0
    1.7625   10.0353    0.0000 C   0  0  0  0  0  0  0  0  0  0  0  0
    2.6394   10.5303    0.0000 C   0  0  0  0  0  0  0  0  0  0  0  0
    2.6402   11.5345    0.0000 O   0  0  0  0  0  0  0  0  0  0  0  0
    3.5180   12.0323    0.0000 C   0  0  0  0  0  0  0  0  0  0  0  0
    4.3872   11.5238    0.0000 C   0  0  0  0  0  0  0  0  0  0  0  0
    5.2567   12.0177    0.0000 O   0  0  0  0  0  0  0  0  0  0  0  0
    4.3787   10.5176    0.0000 N   0  0  0  0  0  0  0  0  0  0  0  0
    3.5085   10.0219    0.0000 C   0  0  0  0  0  0  0  0  0  0  0  0
    3.5002    9.0219    0.0000 N   0  0  0  0  0  0  0  0  0  0  0  0
  2  1  1  6
  2 22  1  0
  2  3  1  0
  3  4  1  0
  4  5  1  0
  5  6  1  0
  6  7  1  0
  7 17  1  0
  7  8  1  0
  8  9  2  0
  8 10  1  0
 10 11  2  0
 11 12  1  0
 12 17  2  0
 12 13  1  0
 13 14  2  0
 14 15  1  0
 15 16  2  0
 16 17  1  0
 15 18  1  0
 18 19  3  0
  4 20  1  0
 20 21  1  0
 21 22  1  0
 22 23  1  6
 23 24  1  0
 24 25  1  0
 25 35  1  0
 25 26  2  0
 26 27  1  0
 27 28  2  0
 28 34  1  0
 28 29  1  0
 29 30  1  0
 30 31  1  0
 31 32  2  0
 31 33  1  0
 33 34  1  0
 34 35  2  0
M  END
>  <SMILES>  (636) 
N#Cc1ccc2ccc(=O)n(CCN3CC[C@@H](NCc4ccc5c(n4)NC(=O)CO5)[C@@H](F)C3)c2c1

>  <CollectionName>  (636) 
chembl

>  <LOG PLASMA PROTEIN BINDING (RAT) (% unbound)>  (636) 
1.45438746715

>  <Internal ID>  (636) 


>  <Source>  (636) 
AstraZeneca

$$$$
CHEMBL2165189
     RDKit          2D

 29 32  0  0  1  0  0  0  0  0999 V2000
   -0.8675   -3.4976    0.0000 C   0  0  0  0  0  0  0  0  0  0  0  0
    0.0000   -3.0002    0.0000 C   0  0  0  0  0  0  0  0  0  0  0  0
    0.0000   -1.9950    0.0000 C   0  0  0  0  0  0  0  0  0  0  0  0
    0.8675   -1.4975    0.0000 N   0  0  0  0  0  0  0  0  0  0  0  0
    1.7350   -1.9950    0.0000 C   0  0  0  0  0  0  0  0  0  0  0  0
    1.7350   -3.0002    0.0000 C   0  0  0  0  0  0  0  0  0  0  0  0
    0.8675   -3.5079    0.0000 O   0  0  0  0  0  0  0  0  0  0  0  0
    0.8675   -0.4975    0.0000 C   0  0  0  0  0  0  0  0  0  0  0  0
    1.7350    0.0000    0.0000 N   0  0  0  0  0  0  0  0  0  0  0  0
    1.7350    1.0052    0.0000 C   0  0  0  0  0  0  0  0  0  0  0  0
    2.6025    1.5026    0.0000 O   0  0  0  0  0  0  0  0  0  0  0  0
    0.8675    1.5129    0.0000 N   0  0  0  0  0  0  0  0  0  0  0  0
    0.0000    1.0052    0.0000 C   0  0  0  0  0  0  0  0  0  0  0  0
    0.0000    0.0000    0.0000 C   0  0  0  0  0  0  0  0  0  0  0  0
   -0.8675    1.5026    0.0000 N   0  0  0  0  0  0  0  0  0  0  0  0
   -1.7320    1.0001    0.0000 C   0  0  0  0  0  0  0  0  0  0  0  0
   -2.5995    1.4975    0.0000 C   0  0  0  0  0  0  0  0  0  0  0  0
   -3.4641    0.9950    0.0000 O   0  0  0  0  0  0  0  0  0  0  0  0
   -0.8704    2.5026    0.0000 C   0  0  0  0  0  0  0  0  0  0  0  0
   -0.0059    3.0052    0.0000 C   0  0  0  0  0  0  0  0  0  0  0  0
    0.8700    2.5069    0.0000 C   0  0  0  0  0  0  0  0  0  0  0  0
    1.7388    3.0135    0.0000 C   0  0  0  0  0  0  0  0  0  0  0  0
    1.7316    4.0184    0.0000 C   0  0  0  0  0  0  0  0  0  0  0  0
    0.8634    4.5146    0.0000 C   0  0  0  0  0  0  0  0  0  0  0  0
    0.8542    5.5162    0.0000 C   0  0  0  0  0  0  0  0  0  0  0  0
   -0.0136    6.0141    0.0000 C   0  0  0  0  0  0  0  0  0  0  0  0
   -0.8818    5.5064    0.0000 C   0  0  0  0  0  0  0  0  0  0  0  0
   -0.8819    4.5008    0.0000 C   0  0  0  0  0  0  0  0  0  0  0  0
   -0.0054    4.0080    0.0000 C   0  0  0  0  0  0  0  0  0  0  0  0
  2  1  1  1
  2  7  1  0
  2  3  1  0
  3  4  1  0
  4  5  1  0
  5  6  1  0
  6  7  1  0
  4  8  1  0
  8 14  1  0
  8  9  2  0
  9 10  1  0
 10 11  2  0
 10 12  1  0
 12 13  1  0
 13 14  2  0
 13 15  1  0
 15 16  1  0
 16 17  1  0
 17 18  1  0
 15 19  1  0
 19 20  1  0
 20 29  1  0
 20 21  2  0
 21 22  1  0
 22 23  2  0
 23 24  1  0
 24 29  2  0
 24 25  1  0
 25 26  2  0
 26 27  1  0
 27 28  2  0
 28 29  1  0
M  END
>  <SMILES>  (637) 
C[C@H]1CN(c2cc(N(CCO)Cc3cccc4ccccc34)[nH]c(=O)n2)CCO1

>  <CollectionName>  (637) 
chembl

>  <LOG PLASMA PROTEIN BINDING (RAT) (% unbound)>  (637) 
0.976808337338

>  <Internal ID>  (637) 


>  <Source>  (637) 
AstraZeneca

$$$$
CHEMBL2165192
     RDKit          2D

 26 29  0  0  1  0  0  0  0  0999 V2000
   -0.8675   -3.4976    0.0000 C   0  0  0  0  0  0  0  0  0  0  0  0
    0.0000   -3.0002    0.0000 C   0  0  0  0  0  0  0  0  0  0  0  0
    0.0000   -1.9950    0.0000 C   0  0  0  0  0  0  0  0  0  0  0  0
    0.8675   -1.4975    0.0000 N   0  0  0  0  0  0  0  0  0  0  0  0
    1.7350   -1.9950    0.0000 C   0  0  0  0  0  0  0  0  0  0  0  0
    1.7350   -3.0002    0.0000 C   0  0  0  0  0  0  0  0  0  0  0  0
    0.8675   -3.5079    0.0000 O   0  0  0  0  0  0  0  0  0  0  0  0
    0.8675   -0.4975    0.0000 C   0  0  0  0  0  0  0  0  0  0  0  0
    0.0000    0.0000    0.0000 C   0  0  0  0  0  0  0  0  0  0  0  0
    0.0000    1.0052    0.0000 C   0  0  0  0  0  0  0  0  0  0  0  0
   -0.8675    1.5026    0.0000 O   0  0  0  0  0  0  0  0  0  0  0  0
    0.8675    1.5129    0.0000 N   0  0  0  0  0  0  0  0  0  0  0  0
    1.7350    1.0052    0.0000 C   0  0  0  0  0  0  0  0  0  0  0  0
    1.7350    0.0000    0.0000 N   0  0  0  0  0  0  0  0  0  0  0  0
    2.6025    1.5026    0.0000 N   0  0  0  0  0  0  0  0  0  0  0  0
    2.6054    2.5026    0.0000 C   0  0  0  0  0  0  0  0  0  0  0  0
    3.4729    3.0001    0.0000 C   0  0  0  0  0  0  0  0  0  0  0  0
    3.4794    4.0077    0.0000 C   0  0  0  0  0  0  0  0  0  0  0  0
    4.3525    4.5068    0.0000 C   0  0  0  0  0  0  0  0  0  0  0  0
    5.2191    3.9982    0.0000 C   0  0  0  0  0  0  0  0  0  0  0  0
    5.2148    2.9982    0.0000 C   0  0  0  0  0  0  0  0  0  0  0  0
    6.0776    2.4894    0.0000 C   0  0  0  0  0  0  0  0  0  0  0  0
    6.0749    1.4889    0.0000 C   0  0  0  0  0  0  0  0  0  0  0  0
    5.2011    0.9910    0.0000 C   0  0  0  0  0  0  0  0  0  0  0  0
    4.3302    1.4936    0.0000 C   0  0  0  0  0  0  0  0  0  0  0  0
    4.3417    2.4991    0.0000 C   0  0  0  0  0  0  0  0  0  0  0  0
  1  2  1  0
  2  7  1  0
  2  3  1  0
  3  4  1  0
  4  5  1  0
  5  6  1  0
  6  7  1  0
  4  8  1  0
  8 14  1  0
  8  9  2  0
  9 10  1  0
 10 11  2  0
 10 12  1  0
 12 13  1  0
 13 14  2  0
 13 15  1  0
 15 16  1  0
 16 17  1  0
 17 26  1  0
 17 18  2  0
 18 19  1  0
 19 20  2  0
 20 21  1  0
 21 26  2  0
 21 22  1  0
 22 23  2  0
 23 24  1  0
 24 25  2  0
 25 26  1  0
M  END
>  <SMILES>  (638) 
CC1CN(c2cc(=O)[nH]c(NCc3cccc4ccccc34)n2)CCO1

>  <CollectionName>  (638) 
chembl

>  <LOG PLASMA PROTEIN BINDING (RAT) (% unbound)>  (638) 
0.380211241712

>  <Internal ID>  (638) 


>  <Source>  (638) 
AstraZeneca

$$$$
CHEMBL2178573
     RDKit          2D

 33 36  0  0  0  0  0  0  0  0999 V2000
   -5.3010    3.1879    0.0000 C   0  0  0  0  0  0  0  0  0  0  0  0
   -4.4328    2.6917    0.0000 C   0  0  0  0  0  0  0  0  0  0  0  0
   -3.5638    3.1969    0.0000 C   0  0  0  0  0  0  0  0  0  0  0  0
   -2.6889    2.7020    0.0000 N   0  0  0  0  0  0  0  0  0  0  0  0
   -2.6918    1.6969    0.0000 C   0  0  0  0  0  0  0  0  0  0  0  0
   -1.8258    1.1969    0.0000 C   0  0  0  0  0  0  0  0  0  0  0  0
   -0.9598    1.6969    0.0000 O   0  0  0  0  0  0  0  0  0  0  0  0
   -1.8258    0.1969    0.0000 C   0  0  0  0  0  0  0  0  0  0  0  0
   -2.6938   -0.3110    0.0000 N   0  0  0  0  0  0  0  0  0  0  0  0
   -2.6938   -1.3168    0.0000 C   0  0  0  0  0  0  0  0  0  0  0  0
   -1.8258   -1.8147    0.0000 N   0  0  0  0  0  0  0  0  0  0  0  0
   -0.9578   -1.3181    0.0000 C   0  0  0  0  0  0  0  0  0  0  0  0
    0.0000   -1.6294    0.0000 N   0  0  0  0  0  0  0  0  0  0  0  0
    0.5920   -0.8146    0.0000 C   0  0  0  0  0  0  0  0  0  0  0  0
    0.0000    0.0000    0.0000 C   0  0  0  0  0  0  0  0  0  0  0  0
   -0.9578   -0.3110    0.0000 C   0  0  0  0  0  0  0  0  0  0  0  0
   -3.5609    1.1917    0.0000 C   0  0  0  0  0  0  0  0  0  0  0  0
   -3.5594    0.1917    0.0000 N   0  0  0  0  0  0  0  0  0  0  0  0
   -4.4246   -0.3096    0.0000 S   0  0  0  0  0  0  0  0  0  0  0  0
   -3.9233   -1.1748    0.0000 O   0  0  0  0  0  0  0  0  0  0  0  0
   -4.9259    0.5557    0.0000 O   0  0  0  0  0  0  0  0  0  0  0  0
   -5.2899   -0.8109    0.0000 C   0  0  0  0  0  0  0  0  0  0  0  0
   -6.1597   -0.3070    0.0000 C   0  0  0  0  0  0  0  0  0  0  0  0
   -7.0250   -0.8083    0.0000 C   0  0  0  0  0  0  0  0  0  0  0  0
   -7.0294   -1.8083    0.0000 C   0  0  0  0  0  0  0  0  0  0  0  0
   -7.8969   -2.3058    0.0000 Cl  0  0  0  0  0  0  0  0  0  0  0  0
   -6.1596   -2.3122    0.0000 C   0  0  0  0  0  0  0  0  0  0  0  0
   -5.2854   -1.8160    0.0000 C   0  0  0  0  0  0  0  0  0  0  0  0
   -6.1640   -3.3121    0.0000 C   0  0  0  0  0  0  0  0  0  0  0  0
   -5.1640   -3.3165    0.0000 F   0  0  0  0  0  0  0  0  0  0  0  0
   -7.1640   -3.3077    0.0000 F   0  0  0  0  0  0  0  0  0  0  0  0
   -6.1684   -4.3121    0.0000 F   0  0  0  0  0  0  0  0  0  0  0  0
   -4.4269    1.6917    0.0000 C   0  0  0  0  0  0  0  0  0  0  0  0
  1  2  1  0
  2 33  2  0
  2  3  1  0
  3  4  2  0
  4  5  1  0
  5  6  1  0
  6  7  2  0
  6  8  1  0
  8 16  1  0
  8  9  2  0
  9 10  1  0
 10 11  2  0
 11 12  1  0
 12 16  2  0
 12 13  1  0
 13 14  1  0
 14 15  2  0
 15 16  1  0
  5 17  2  0
 17 18  1  0
 18 19  1  0
 19 20  2  0
 19 21  2  0
 19 22  1  0
 22 28  1  0
 22 23  2  0
 23 24  1  0
 24 25  2  0
 25 26  1  0
 25 27  1  0
 27 28  2  0
 27 29  1  0
 29 30  1  0
 29 31  1  0
 29 32  1  0
 17 33  1  0
M  END
>  <SMILES>  (639) 
Cc1cnc(C(=O)c2ncnc3[nH]ccc23)c(NS(=O)(=O)c2ccc(Cl)c(C(F)(F)F)c2)c1

>  <CollectionName>  (639) 
chembl

>  <LOG PLASMA PROTEIN BINDING (RAT) (% unbound)>  (639) 
-0.677780705266

>  <Internal ID>  (639) 


>  <Source>  (639) 
AstraZeneca

$$$$
CHEMBL2178579
     RDKit          2D

 29 31  0  0  0  0  0  0  0  0999 V2000
   -0.8675    3.5232    0.0000 O   0  0  0  0  0  0  0  0  0  0  0  0
   -0.0000    4.0206    0.0000 C   0  0  0  0  0  0  0  0  0  0  0  0
   -0.0000    5.0258    0.0000 C   0  0  0  0  0  0  0  0  0  0  0  0
   -0.8653    5.5271    0.0000 N   0  0  0  0  0  0  0  0  0  0  0  0
   -1.7320    5.0283    0.0000 C   0  0  0  0  0  0  0  0  0  0  0  0
   -1.7335    4.0283    0.0000 O   0  0  0  0  0  0  0  0  0  0  0  0
   -2.5973    5.5296    0.0000 N   0  0  0  0  0  0  0  0  0  0  0  0
   -3.4641    5.0308    0.0000 C   0  0  0  0  0  0  0  0  0  0  0  0
   -4.3324    5.5373    0.0000 C   0  0  0  0  0  0  0  0  0  0  0  0
   -5.1992    5.0385    0.0000 C   0  0  0  0  0  0  0  0  0  0  0  0
   -5.2065    4.0385    0.0000 C   0  0  0  0  0  0  0  0  0  0  0  0
   -4.3382    3.5321    0.0000 C   0  0  0  0  0  0  0  0  0  0  0  0
   -4.3456    2.5321    0.0000 F   0  0  0  0  0  0  0  0  0  0  0  0
   -3.4626    4.0257    0.0000 C   0  0  0  0  0  0  0  0  0  0  0  0
   -2.5988    3.5219    0.0000 Cl  0  0  0  0  0  0  0  0  0  0  0  0
    0.8675    5.5233    0.0000 C   0  0  0  0  0  0  0  0  0  0  0  0
    1.7350    5.0258    0.0000 C   0  0  0  0  0  0  0  0  0  0  0  0
    1.7350    4.0206    0.0000 C   0  0  0  0  0  0  0  0  0  0  0  0
    2.6025    3.5232    0.0000 Cl  0  0  0  0  0  0  0  0  0  0  0  0
    0.8675    3.5129    0.0000 C   0  0  0  0  0  0  0  0  0  0  0  0
    0.8675    2.5129    0.0000 S   0  0  0  0  0  0  0  0  0  0  0  0
    1.8675    2.5129    0.0000 O   0  0  0  0  0  0  0  0  0  0  0  0
   -0.1325    2.5129    0.0000 O   0  0  0  0  0  0  0  0  0  0  0  0
    0.8675    1.5129    0.0000 N   0  0  0  0  0  0  0  0  0  0  0  0
    0.0000    1.0052    0.0000 C   0  0  0  0  0  0  0  0  0  0  0  0
    0.0000    0.0000    0.0000 C   0  0  0  0  0  0  0  0  0  0  0  0
    0.8675   -0.4975    0.0000 N   0  0  0  0  0  0  0  0  0  0  0  0
    1.7350    0.0000    0.0000 C   0  0  0  0  0  0  0  0  0  0  0  0
    1.7350    1.0052    0.0000 C   0  0  0  0  0  0  0  0  0  0  0  0
  1  2  1  0
  2 20  2  0
  2  3  1  0
  3  4  1  0
  4  5  1  0
  5  6  2  0
  5  7  1  0
  7  8  1  0
  8 14  1  0
  8  9  2  0
  9 10  1  0
 10 11  2  0
 11 12  1  0
 12 13  1  0
 12 14  2  0
 14 15  1  0
  3 16  2  0
 16 17  1  0
 17 18  2  0
 18 19  1  0
 18 20  1  0
 20 21  1  0
 21 22  2  0
 21 23  2  0
 21 24  1  0
 24 29  1  0
 24 25  1  0
 25 26  1  0
 26 27  1  0
 27 28  1  0
 28 29  1  0
M  END
>  <SMILES>  (640) 
O=C(Nc1ccc(Cl)c(S(=O)(=O)N2CCNCC2)c1O)Nc1cccc(F)c1Cl

>  <CollectionName>  (640) 
chembl

>  <LOG PLASMA PROTEIN BINDING (RAT) (% unbound)>  (640) 
0.0253058652648

>  <Internal ID>  (640) 


>  <Source>  (640) 
AstraZeneca

$$$$
CHEMBL2178937
     RDKit          2D

 33 35  0  0  1  0  0  0  0  0999 V2000
    2.6003   -0.5013    0.0000 C   0  0  0  0  0  0  0  0  0  0  0  0
    1.7350    0.0000    0.0000 C   0  0  0  0  0  0  0  0  0  0  0  0
    0.8675   -0.4975    0.0000 N   0  0  0  0  0  0  0  0  0  0  0  0
    0.0000    0.0000    0.0000 C   0  0  0  0  0  0  0  0  0  0  0  0
   -0.8653   -0.5013    0.0000 C   0  0  0  0  0  0  0  0  0  0  0  0
    0.0000    1.0052    0.0000 C   0  0  0  0  0  0  0  0  0  0  0  0
    0.8675    1.5129    0.0000 N   0  0  0  0  0  0  0  0  0  0  0  0
    1.7350    1.0052    0.0000 C   0  0  0  0  0  0  0  0  0  0  0  0
    2.6025    1.5026    0.0000 C   0  0  0  0  0  0  0  0  0  0  0  0
    3.4670    1.0001    0.0000 O   0  0  0  0  0  0  0  0  0  0  0  0
    2.6054    2.5026    0.0000 N   0  0  0  0  0  0  0  0  0  0  0  0
   -0.8675    1.5026    0.0000 C   0  0  0  0  0  0  0  0  0  0  0  0
   -0.8719    2.5027    0.0000 C   0  0  0  0  0  0  0  0  0  0  0  0
   -1.7372    3.0039    0.0000 C   0  0  0  0  0  0  0  0  0  0  0  0
   -2.6070    2.5000    0.0000 C   0  0  0  0  0  0  0  0  0  0  0  0
   -2.6114    1.4949    0.0000 C   0  0  0  0  0  0  0  0  0  0  0  0
   -1.7373    0.9987    0.0000 C   0  0  0  0  0  0  0  0  0  0  0  0
   -3.4723    3.0012    0.0000 C   0  0  0  0  0  0  0  0  0  0  0  0
   -4.3421    2.4973    0.0000 C   0  0  0  0  0  0  0  0  0  0  0  0
   -5.2074    2.9986    0.0000 C   0  0  0  0  0  0  0  0  0  0  0  0
   -5.2118    3.9986    0.0000 C   0  0  0  0  0  0  0  0  0  0  0  0
   -6.0793    4.4960    0.0000 C   0  0  0  0  0  0  0  0  0  0  0  0
   -6.9439    3.9935    0.0000 C   0  0  0  0  0  0  0  0  0  0  0  0
   -6.9409    2.9935    0.0000 O   0  0  0  0  0  0  0  0  0  0  0  0
   -7.8114    4.4909    0.0000 N   0  0  0  0  0  0  0  0  0  0  0  0
   -8.6759    3.9884    0.0000 C   0  0  0  0  0  0  0  0  0  0  0  0
   -8.1734    3.1238    0.0000 C   0  0  0  0  0  0  0  0  0  0  0  0
   -9.1785    4.8529    0.0000 C   0  0  0  0  0  0  0  0  0  0  0  0
   -9.5405    3.4858    0.0000 C   0  0  0  0  0  0  0  0  0  0  0  0
  -10.4080    3.9833    0.0000 O   0  0  0  0  0  0  0  0  0  0  0  0
   -9.5375    2.4858    0.0000 O   0  0  0  0  0  0  0  0  0  0  0  0
   -4.3421    4.5025    0.0000 C   0  0  0  0  0  0  0  0  0  0  0  0
   -3.4679    4.0064    0.0000 C   0  0  0  0  0  0  0  0  0  0  0  0
  1  2  1  0
  2  8  2  0
  2  3  1  0
  3  4  2  0
  4  5  1  0
  4  6  1  0
  6  7  2  0
  7  8  1  0
  8  9  1  0
  9 10  2  0
  9 11  1  0
  6 12  1  0
 12 17  1  0
 12 13  2  0
 13 14  1  0
 14 15  2  0
 15 16  1  0
 16 17  2  0
 18 15  1  6
 18 33  1  0
 18 19  1  0
 19 20  1  0
 20 21  1  0
 21 22  1  1
 22 23  1  0
 23 24  2  0
 23 25  1  0
 25 26  1  0
 26 27  1  0
 26 28  1  0
 26 29  1  0
 29 30  2  0
 29 31  1  0
 21 32  1  0
 32 33  1  0
M  END
>  <SMILES>  (641) 
Cc1nc(C)c(-c2ccc([C@H]3CC[C@H](CC(=O)NC(C)(C)C(=O)O)CC3)cc2)nc1C(N)=O

>  <CollectionName>  (641) 
chembl

>  <LOG PLASMA PROTEIN BINDING (RAT) (% unbound)>  (641) 
0.399673721481

>  <Internal ID>  (641) 


>  <Source>  (641) 
AstraZeneca

$$$$
CHEMBL2178939
     RDKit          2D

 31 33  0  0  1  0  0  0  0  0999 V2000
    2.6003   -0.5013    0.0000 C   0  0  0  0  0  0  0  0  0  0  0  0
    1.7350    0.0000    0.0000 C   0  0  0  0  0  0  0  0  0  0  0  0
    0.8675   -0.4975    0.0000 N   0  0  0  0  0  0  0  0  0  0  0  0
    0.0000    0.0000    0.0000 C   0  0  0  0  0  0  0  0  0  0  0  0
   -0.8653   -0.5013    0.0000 C   0  0  0  0  0  0  0  0  0  0  0  0
    0.0000    1.0052    0.0000 C   0  0  0  0  0  0  0  0  0  0  0  0
    0.8675    1.5129    0.0000 N   0  0  0  0  0  0  0  0  0  0  0  0
    1.7350    1.0052    0.0000 C   0  0  0  0  0  0  0  0  0  0  0  0
    2.6025    1.5026    0.0000 C   0  0  0  0  0  0  0  0  0  0  0  0
    3.4670    1.0001    0.0000 O   0  0  0  0  0  0  0  0  0  0  0  0
    2.6054    2.5026    0.0000 N   0  0  0  0  0  0  0  0  0  0  0  0
   -0.8675    1.5026    0.0000 C   0  0  0  0  0  0  0  0  0  0  0  0
   -0.8719    2.5027    0.0000 C   0  0  0  0  0  0  0  0  0  0  0  0
   -1.7372    3.0039    0.0000 C   0  0  0  0  0  0  0  0  0  0  0  0
   -2.6070    2.5000    0.0000 C   0  0  0  0  0  0  0  0  0  0  0  0
   -2.6114    1.4949    0.0000 C   0  0  0  0  0  0  0  0  0  0  0  0
   -1.7373    0.9987    0.0000 C   0  0  0  0  0  0  0  0  0  0  0  0
   -3.4723    3.0012    0.0000 C   0  0  0  0  0  0  0  0  0  0  0  0
   -4.3421    2.4973    0.0000 C   0  0  0  0  0  0  0  0  0  0  0  0
   -5.2074    2.9986    0.0000 C   0  0  0  0  0  0  0  0  0  0  0  0
   -5.2118    3.9986    0.0000 C   0  0  0  0  0  0  0  0  0  0  0  0
   -6.0793    4.4960    0.0000 C   0  0  0  0  0  0  0  0  0  0  0  0
   -6.9439    3.9935    0.0000 C   0  0  0  0  0  0  0  0  0  0  0  0
   -6.9409    2.9935    0.0000 O   0  0  0  0  0  0  0  0  0  0  0  0
   -7.8114    4.4909    0.0000 N   0  0  0  0  0  0  0  0  0  0  0  0
   -8.6759    3.9884    0.0000 S   0  0  0  0  0  0  0  0  0  0  0  0
   -9.1785    4.8529    0.0000 O   0  0  0  0  0  0  0  0  0  0  0  0
   -8.1734    3.1238    0.0000 O   0  0  0  0  0  0  0  0  0  0  0  0
   -9.5405    3.4858    0.0000 C   0  0  0  0  0  0  0  0  0  0  0  0
   -4.3421    4.5025    0.0000 C   0  0  0  0  0  0  0  0  0  0  0  0
   -3.4679    4.0064    0.0000 C   0  0  0  0  0  0  0  0  0  0  0  0
  1  2  1  0
  2  8  2  0
  2  3  1  0
  3  4  2  0
  4  5  1  0
  4  6  1  0
  6  7  2  0
  7  8  1  0
  8  9  1  0
  9 10  2  0
  9 11  1  0
  6 12  1  0
 12 17  1  0
 12 13  2  0
 13 14  1  0
 14 15  2  0
 15 16  1  0
 16 17  2  0
 18 15  1  6
 18 31  1  0
 18 19  1  0
 19 20  1  0
 20 21  1  0
 21 22  1  1
 22 23  1  0
 23 24  2  0
 23 25  1  0
 25 26  1  0
 26 27  2  0
 26 28  2  0
 26 29  1  0
 21 30  1  0
 30 31  1  0
M  END
>  <SMILES>  (642) 
Cc1nc(C)c(-c2ccc([C@H]3CC[C@H](CC(=O)NS(C)(=O)=O)CC3)cc2)nc1C(N)=O

>  <CollectionName>  (642) 
chembl

>  <LOG PLASMA PROTEIN BINDING (RAT) (% unbound)>  (642) 
0.506505032405

>  <Internal ID>  (642) 


>  <Source>  (642) 
AstraZeneca

$$$$
CHEMBL2179273
     RDKit          2D

 36 39  0  0  1  0  0  0  0  0999 V2000
    1.7374    7.0219    0.0000 C   0  0  0  0  0  0  0  0  0  0  0  0
    1.7389    6.0219    0.0000 C   0  0  0  0  0  0  0  0  0  0  0  0
    2.6056    5.5232    0.0000 C   0  0  0  0  0  0  0  0  0  0  0  0
    2.6071    4.5232    0.0000 C   0  0  0  0  0  0  0  0  0  0  0  0
    1.7418    4.0219    0.0000 N   0  0  0  0  0  0  0  0  0  0  0  0
    0.8676    4.5181    0.0000 C   0  0  0  0  0  0  0  0  0  0  0  0
   -0.0022    4.0142    0.0000 C   0  0  0  0  0  0  0  0  0  0  0  0
    0.0022    3.0142    0.0000 C   0  0  0  0  0  0  0  0  0  0  0  0
    0.8675    2.5129    0.0000 C   0  0  0  0  0  0  0  0  0  0  0  0
    1.7373    3.0168    0.0000 C   0  0  0  0  0  0  0  0  0  0  0  0
    0.8675    1.5129    0.0000 N   0  0  0  0  0  0  0  0  0  0  0  0
    0.0000    1.0052    0.0000 C   0  0  0  0  0  0  0  0  0  0  0  0
    0.0000    0.0000    0.0000 C   0  0  0  0  0  0  0  0  0  0  0  0
   -0.8653   -0.5013    0.0000 C   0  0  0  0  0  0  0  0  0  0  0  0
    0.8675   -0.4975    0.0000 C   0  0  0  0  0  0  0  0  0  0  0  0
    0.8675   -1.4975    0.0000 O   0  0  0  0  0  0  0  0  0  0  0  0
    1.7350    0.0000    0.0000 N   0  0  0  0  0  0  0  0  0  0  0  0
    1.7350    1.0052    0.0000 C   0  0  0  0  0  0  0  0  0  0  0  0
    2.6025    1.5026    0.0000 O   0  0  0  0  0  0  0  0  0  0  0  0
    3.4738    4.0244    0.0000 C   0  0  0  0  0  0  0  0  0  0  0  0
    3.4723    3.0192    0.0000 C   0  0  0  0  0  0  0  0  0  0  0  0
    4.3391    2.5204    0.0000 C   0  0  0  0  0  0  0  0  0  0  0  0
    5.2073    3.0166    0.0000 C   0  0  0  0  0  0  0  0  0  0  0  0
    6.0719    2.5141    0.0000 C   0  0  0  0  0  0  0  0  0  0  0  0
    6.0689    1.5141    0.0000 O   0  0  0  0  0  0  0  0  0  0  0  0
    6.9394    3.0115    0.0000 O   0  0  0  0  0  0  0  0  0  0  0  0
    5.2088    4.0218    0.0000 C   0  0  0  0  0  0  0  0  0  0  0  0
    6.0771    4.5180    0.0000 O   0  0  0  0  0  0  0  0  0  0  0  0
    6.0815    5.5179    0.0000 C   0  0  0  0  0  0  0  0  0  0  0  0
    5.2117    6.0218    0.0000 C   0  0  0  0  0  0  0  0  0  0  0  0
    5.2161    7.0219    0.0000 C   0  0  0  0  0  0  0  0  0  0  0  0
    6.0815    7.5231    0.0000 C   0  0  0  0  0  0  0  0  0  0  0  0
    6.9513    7.0192    0.0000 C   0  0  0  0  0  0  0  0  0  0  0  0
    7.8166    7.5204    0.0000 Cl  0  0  0  0  0  0  0  0  0  0  0  0
    6.9557    6.0141    0.0000 C   0  0  0  0  0  0  0  0  0  0  0  0
    4.3421    4.5308    0.0000 C   0  0  0  0  0  0  0  0  0  0  0  0
  1  2  1  0
  2  3  1  0
  4  3  1  6
  4  5  1  0
  5 10  1  0
  5  6  1  0
  6  7  1  0
  7  8  1  0
  8  9  1  0
  9 10  1  0
  9 11  1  1
 11 18  1  0
 11 12  1  0
 12 13  2  0
 13 14  1  0
 13 15  1  0
 15 16  2  0
 15 17  1  0
 17 18  1  0
 18 19  2  0
  4 20  1  0
 20 36  1  0
 20 21  2  0
 21 22  1  0
 22 23  2  0
 23 24  1  0
 24 25  2  0
 24 26  1  0
 23 27  1  0
 27 28  1  0
 28 29  1  0
 29 35  1  0
 29 30  2  0
 30 31  1  0
 31 32  2  0
 32 33  1  0
 33 34  1  0
 33 35  2  0
 27 36  2  0
M  END
>  <SMILES>  (643) 
CCC[C@H](c1ccc(C(=O)O)c(Oc2cccc(Cl)c2)c1)N1CCC[C@H](n2cc(C)c(=O)[nH]c2=O)C1

>  <CollectionName>  (643) 
chembl

>  <LOG PLASMA PROTEIN BINDING (RAT) (% unbound)>  (643) 
0.204119982656

>  <Internal ID>  (643) 


>  <Source>  (643) 
AstraZeneca

$$$$
CHEMBL2179274
     RDKit          2D

 36 39  0  0  1  0  0  0  0  0999 V2000
    1.7374    7.0219    0.0000 C   0  0  0  0  0  0  0  0  0  0  0  0
    1.7389    6.0219    0.0000 C   0  0  0  0  0  0  0  0  0  0  0  0
    2.6056    5.5232    0.0000 C   0  0  0  0  0  0  0  0  0  0  0  0
    2.6071    4.5232    0.0000 C   0  0  0  0  0  0  0  0  0  0  0  0
    1.7418    4.0219    0.0000 N   0  0  0  0  0  0  0  0  0  0  0  0
    0.8676    4.5181    0.0000 C   0  0  0  0  0  0  0  0  0  0  0  0
   -0.0022    4.0142    0.0000 C   0  0  0  0  0  0  0  0  0  0  0  0
    0.0022    3.0142    0.0000 C   0  0  0  0  0  0  0  0  0  0  0  0
    0.8675    2.5129    0.0000 C   0  0  0  0  0  0  0  0  0  0  0  0
    1.7373    3.0168    0.0000 C   0  0  0  0  0  0  0  0  0  0  0  0
    0.8675    1.5129    0.0000 N   0  0  0  0  0  0  0  0  0  0  0  0
    0.0000    1.0052    0.0000 C   0  0  0  0  0  0  0  0  0  0  0  0
    0.0000    0.0000    0.0000 C   0  0  0  0  0  0  0  0  0  0  0  0
   -0.8653   -0.5013    0.0000 C   0  0  0  0  0  0  0  0  0  0  0  0
    0.8675   -0.4975    0.0000 C   0  0  0  0  0  0  0  0  0  0  0  0
    0.8675   -1.4975    0.0000 O   0  0  0  0  0  0  0  0  0  0  0  0
    1.7350    0.0000    0.0000 N   0  0  0  0  0  0  0  0  0  0  0  0
    1.7350    1.0052    0.0000 C   0  0  0  0  0  0  0  0  0  0  0  0
    2.6025    1.5026    0.0000 O   0  0  0  0  0  0  0  0  0  0  0  0
    3.4738    4.0244    0.0000 C   0  0  0  0  0  0  0  0  0  0  0  0
    3.4723    3.0192    0.0000 C   0  0  0  0  0  0  0  0  0  0  0  0
    4.3391    2.5204    0.0000 C   0  0  0  0  0  0  0  0  0  0  0  0
    5.2073    3.0166    0.0000 C   0  0  0  0  0  0  0  0  0  0  0  0
    6.0719    2.5141    0.0000 C   0  0  0  0  0  0  0  0  0  0  0  0
    6.0689    1.5141    0.0000 O   0  0  0  0  0  0  0  0  0  0  0  0
    6.9394    3.0115    0.0000 O   0  0  0  0  0  0  0  0  0  0  0  0
    5.2088    4.0218    0.0000 C   0  0  0  0  0  0  0  0  0  0  0  0
    6.0771    4.5180    0.0000 O   0  0  0  0  0  0  0  0  0  0  0  0
    6.0815    5.5179    0.0000 C   0  0  0  0  0  0  0  0  0  0  0  0
    5.2117    6.0218    0.0000 C   0  0  0  0  0  0  0  0  0  0  0  0
    5.2161    7.0219    0.0000 C   0  0  0  0  0  0  0  0  0  0  0  0
    6.0815    7.5231    0.0000 C   0  0  0  0  0  0  0  0  0  0  0  0
    6.9513    7.0192    0.0000 C   0  0  0  0  0  0  0  0  0  0  0  0
    7.8166    7.5204    0.0000 Cl  0  0  0  0  0  0  0  0  0  0  0  0
    6.9557    6.0141    0.0000 C   0  0  0  0  0  0  0  0  0  0  0  0
    4.3421    4.5308    0.0000 C   0  0  0  0  0  0  0  0  0  0  0  0
  1  2  1  0
  2  3  1  0
  4  3  1  1
  4  5  1  0
  5 10  1  0
  5  6  1  0
  6  7  1  0
  7  8  1  0
  8  9  1  0
  9 10  1  0
  9 11  1  1
 11 18  1  0
 11 12  1  0
 12 13  2  0
 13 14  1  0
 13 15  1  0
 15 16  2  0
 15 17  1  0
 17 18  1  0
 18 19  2  0
  4 20  1  0
 20 36  1  0
 20 21  2  0
 21 22  1  0
 22 23  2  0
 23 24  1  0
 24 25  2  0
 24 26  1  0
 23 27  1  0
 27 28  1  0
 28 29  1  0
 29 35  1  0
 29 30  2  0
 30 31  1  0
 31 32  2  0
 32 33  1  0
 33 34  1  0
 33 35  2  0
 27 36  2  0
M  END
>  <SMILES>  (644) 
CCC[C@@H](c1ccc(C(=O)O)c(Oc2cccc(Cl)c2)c1)N1CCC[C@H](n2cc(C)c(=O)[nH]c2=O)C1

>  <CollectionName>  (644) 
chembl

>  <LOG PLASMA PROTEIN BINDING (RAT) (% unbound)>  (644) 
0.25285303098

>  <Internal ID>  (644) 


>  <Source>  (644) 
AstraZeneca

$$$$
CHEMBL1017
     RDKit          2D

 39 44  0  0  0  0  0  0  0  0999 V2000
    9.9783   -1.2132    0.0000 C   0  0  0  0  0  0  0  0  0  0  0  0
    9.1129   -0.7121    0.0000 C   0  0  0  0  0  0  0  0  0  0  0  0
    8.2462   -1.2110    0.0000 C   0  0  0  0  0  0  0  0  0  0  0  0
    7.3809   -0.7099    0.0000 C   0  0  0  0  0  0  0  0  0  0  0  0
    7.2768    0.2917    0.0000 N   0  0  0  0  0  0  0  0  0  0  0  0
    6.2921    0.5026    0.0000 C   0  0  0  0  0  0  0  0  0  0  0  0
    5.7955    1.3771    0.0000 C   0  0  0  0  0  0  0  0  0  0  0  0
    6.2967    2.2425    0.0000 C   0  0  0  0  0  0  0  0  0  0  0  0
    4.7899    1.3726    0.0000 C   0  0  0  0  0  0  0  0  0  0  0  0
    4.2858    0.5023    0.0000 C   0  0  0  0  0  0  0  0  0  0  0  0
    4.7874   -0.3636    0.0000 C   0  0  0  0  0  0  0  0  0  0  0  0
    5.7874   -0.3689    0.0000 C   0  0  0  0  0  0  0  0  0  0  0  0
    6.4602   -1.1183    0.0000 N   0  0  0  0  0  0  0  0  0  0  0  0
    6.2509   -2.0961    0.0000 C   0  0  0  0  0  0  0  0  0  0  0  0
    5.2995   -2.4038    0.0000 C   0  0  0  0  0  0  0  0  0  0  0  0
    5.0888   -3.3814    0.0000 C   0  0  0  0  0  0  0  0  0  0  0  0
    4.1386   -3.6933    0.0000 C   0  0  0  0  0  0  0  0  0  0  0  0
    3.3915   -3.0207    0.0000 C   0  0  0  0  0  0  0  0  0  0  0  0
    3.5947   -2.0363    0.0000 C   0  0  0  0  0  0  0  0  0  0  0  0
    4.5524   -1.7313    0.0000 C   0  0  0  0  0  0  0  0  0  0  0  0
    2.4414   -3.3326    0.0000 C   0  0  0  0  0  0  0  0  0  0  0  0
    1.6953   -2.6667    0.0000 C   0  0  0  0  0  0  0  0  0  0  0  0
    0.7438   -2.9745    0.0000 C   0  0  0  0  0  0  0  0  0  0  0  0
    0.5363   -3.9580    0.0000 C   0  0  0  0  0  0  0  0  0  0  0  0
    1.2804   -4.6339    0.0000 C   0  0  0  0  0  0  0  0  0  0  0  0
    2.2340   -4.3161    0.0000 C   0  0  0  0  0  0  0  0  0  0  0  0
    2.9801   -4.9819    0.0000 C   0  0  0  0  0  0  0  0  0  0  0  0
    3.9298   -4.6686    0.0000 O   0  0  0  0  0  0  0  0  0  0  0  0
    2.7766   -5.9610    0.0000 O   0  0  0  0  0  0  0  0  0  0  0  0
    3.2858    0.5022    0.0000 C   0  0  0  0  0  0  0  0  0  0  0  0
    2.6938   -0.3126    0.0000 N   0  0  0  0  0  0  0  0  0  0  0  0
    1.7360   -0.0013    0.0000 C   0  0  0  0  0  0  0  0  0  0  0  0
    0.8680   -0.4979    0.0000 C   0  0  0  0  0  0  0  0  0  0  0  0
    0.0000    0.0000    0.0000 C   0  0  0  0  0  0  0  0  0  0  0  0
    0.0000    1.0058    0.0000 C   0  0  0  0  0  0  0  0  0  0  0  0
    0.8680    1.5137    0.0000 C   0  0  0  0  0  0  0  0  0  0  0  0
    1.7360    1.0058    0.0000 C   0  0  0  0  0  0  0  0  0  0  0  0
    2.6938    1.3168    0.0000 N   0  0  0  0  0  0  0  0  0  0  0  0
    3.0029    2.2678    0.0000 C   0  0  0  0  0  0  0  0  0  0  0  0
  1  2  1  0
  2  3  1  0
  3  4  1  0
  4 13  1  0
  4  5  2  0
  5  6  1  0
  6 12  2  0
  6  7  1  0
  7  8  1  0
  7  9  2  0
  9 10  1  0
 10 11  2  0
 11 12  1  0
 12 13  1  0
 13 14  1  0
 14 15  1  0
 15 20  1  0
 15 16  2  0
 16 17  1  0
 17 18  2  0
 18 19  1  0
 19 20  2  0
 18 21  1  0
 21 26  1  0
 21 22  2  0
 22 23  1  0
 23 24  2  0
 24 25  1  0
 25 26  2  0
 26 27  1  0
 27 28  2  0
 27 29  1  0
 10 30  1  0
 30 38  1  0
 30 31  2  0
 31 32  1  0
 32 37  2  0
 32 33  1  0
 33 34  2  0
 34 35  1  0
 35 36  2  0
 36 37  1  0
 37 38  1  0
 38 39  1  0
M  END
>  <SMILES>  (645) 
CCCc1nc2c(C)cc(-c3nc4ccccc4n3C)cc2n1Cc1ccc(-c2ccccc2C(=O)O)cc1

>  <CollectionName>  (645) 
chembl

>  <LOG PLASMA PROTEIN BINDING (RAT) (% unbound)>  (645) 
-0.420216403383

>  <Internal ID>  (645) 


>  <Source>  (645) 
AstraZeneca

$$$$
CHEMBL383322
     RDKit          2D

 23 25  0  0  0  0  0  0  0  0999 V2000
    6.8225    4.3223    0.0000 C   0  0  0  0  0  0  0  0  0  0  0  0
    5.8225    4.3255    0.0000 C   0  0  0  0  0  0  0  0  0  0  0  0
    5.3198    3.4611    0.0000 O   0  0  0  0  0  0  0  0  0  0  0  0
    4.3198    3.4643    0.0000 C   0  0  0  0  0  0  0  0  0  0  0  0
    3.8170    2.5999    0.0000 C   0  0  0  0  0  0  0  0  0  0  0  0
    4.2240    1.6775    0.0000 N   0  0  0  0  0  0  0  0  0  0  0  0
    3.4726    1.0054    0.0000 C   0  0  0  0  0  0  0  0  0  0  0  0
    3.4748    0.0022    0.0000 C   0  0  0  0  0  0  0  0  0  0  0  0
    4.3410   -0.4975    0.0000 N   0  0  0  0  0  0  0  0  0  0  0  0
    2.6038   -0.4989    0.0000 N   0  0  0  0  0  0  0  0  0  0  0  0
    1.7371    0.0000    0.0000 C   0  0  0  0  0  0  0  0  0  0  0  0
    0.8679   -0.4978    0.0000 C   0  0  0  0  0  0  0  0  0  0  0  0
    0.0000    0.0000    0.0000 C   0  0  0  0  0  0  0  0  0  0  0  0
    0.0000    1.0056    0.0000 C   0  0  0  0  0  0  0  0  0  0  0  0
    0.8679    1.5134    0.0000 C   0  0  0  0  0  0  0  0  0  0  0  0
    1.7358    1.0056    0.0000 C   0  0  0  0  0  0  0  0  0  0  0  0
    2.6012    1.5124    0.0000 C   0  0  0  0  0  0  0  0  0  0  0  0
    2.8140    2.4976    0.0000 N   0  0  0  0  0  0  0  0  0  0  0  0
    2.1472    3.2429    0.0000 C   0  0  0  0  0  0  0  0  0  0  0  0
    2.4593    4.1929    0.0000 C   0  0  0  0  0  0  0  0  0  0  0  0
    1.5092    4.5050    0.0000 C   0  0  0  0  0  0  0  0  0  0  0  0
    2.7713    5.1430    0.0000 C   0  0  0  0  0  0  0  0  0  0  0  0
    3.4093    3.8809    0.0000 O   0  0  0  0  0  0  0  0  0  0  0  0
  1  2  1  0
  2  3  1  0
  3  4  1  0
  4  5  1  0
  5 18  1  0
  5  6  2  0
  6  7  1  0
  7 17  2  0
  7  8  1  0
  8  9  1  0
  8 10  2  0
 10 11  1  0
 11 16  2  0
 11 12  1  0
 12 13  2  0
 13 14  1  0
 14 15  2  0
 15 16  1  0
 16 17  1  0
 17 18  1  0
 18 19  1  0
 19 20  1  0
 20 21  1  0
 20 22  1  0
 20 23  1  0
M  END
>  <SMILES>  (646) 
CCOCc1nc2c(N)nc3ccccc3c2n1CC(C)(C)O

>  <CollectionName>  (646) 
chembl

>  <LOG PLASMA PROTEIN BINDING (RAT) (% unbound)>  (646) 
1.75913881628

>  <Internal ID>  (646) 


>  <Source>  (646) 
AstraZeneca

$$$$
CHEMBL70
     RDKit          2D

 21 25  0  0  1  0  0  0  0  0999 V2000
    3.5607   -3.5661    0.0000 C   0  0  0  0  0  0  0  0  0  0  0  0
    2.5608   -3.5551    0.0000 N   0  0  0  0  0  0  0  0  0  0  0  0
    1.6860   -4.0481    0.0000 C   0  0  0  0  0  0  0  0  0  0  0  0
   -0.0518   -4.0277    0.0000 C   0  0  0  0  0  0  0  0  0  0  0  0
   -0.0423   -3.0217    0.0000 C   0  0  0  0  0  0  0  0  0  0  0  0
   -0.9106   -3.5298    0.0000 C   0  0  0  0  0  0  0  0  0  0  0  0
   -1.7134   -2.5237    0.0000 O   0  0  0  0  0  0  0  0  0  0  0  0
   -0.9039   -1.5034    0.0000 C   0  0  0  0  0  0  0  0  0  0  0  0
   -0.8842   -0.4903    0.0000 C   0  0  0  0  0  0  0  0  0  0  0  0
   -1.7409    0.0255    0.0000 O   0  0  0  0  0  0  0  0  0  0  0  0
    0.0000    0.0000    0.0000 C   0  0  0  0  0  0  0  0  0  0  0  0
    0.8648   -0.5226    0.0000 C   0  0  0  0  0  0  0  0  0  0  0  0
    0.8474   -1.5281    0.0000 C   0  0  0  0  0  0  0  0  0  0  0  0
    1.7083   -2.0368    0.0000 C   0  0  0  0  0  0  0  0  0  0  0  0
    1.6954   -3.0420    0.0000 C   0  0  0  0  0  0  0  0  0  0  0  0
    0.8239   -3.5335    0.0000 C   0  0  0  0  0  0  0  0  0  0  0  0
    0.8260   -4.5359    0.0000 C   0  0  0  0  0  0  0  0  0  0  0  0
   -0.0423   -5.0338    0.0000 C   0  0  0  0  0  0  0  0  0  0  0  0
   -0.9106   -4.5359    0.0000 C   0  0  0  0  0  0  0  0  0  0  0  0
   -1.7759   -5.0372    0.0000 O   0  0  0  0  0  0  0  0  0  0  0  0
   -0.0369   -2.0184    0.0000 C   0  0  0  0  0  0  0  0  0  0  0  0
  1  2  1  0
  2 15  1  0
  2  3  1  0
  3  4  1  0
  5  4  1  1
  5 16  1  0
  5 21  1  0
  5  6  1  0
  6 19  1  0
  6  7  1  6
  7  8  1  0
  8 21  2  0
  8  9  1  0
  9 10  1  0
  9 11  2  0
 11 12  1  0
 12 13  2  0
 13 14  1  0
 15 14  1  1
 15 16  1  0
 16 17  1  6
 17 18  2  0
 18 19  1  0
 19 20  1  6
 13 21  1  0
M  END
>  <SMILES>  (647) 
CN1CC[C@]23c4c5ccc(O)c4O[C@H]2[C@@H](O)C=C[C@H]3[C@H]1C5

>  <CollectionName>  (647) 
chembl

>  <LOG PLASMA PROTEIN BINDING (RAT) (% unbound)>  (647) 
1.91761052575

>  <Internal ID>  (647) 


>  <Source>  (647) 
AstraZeneca

$$$$
CHEMBL360227
     RDKit          2D

 32 34  0  0  1  0  0  0  0  0999 V2000
    3.9298    5.1211    0.0000 C   0  0  0  0  0  0  0  0  0  0  0  0
    3.6208    4.1701    0.0000 C   0  0  0  0  0  0  0  0  0  0  0  0
    4.2900    3.4269    0.0000 N   0  0  0  0  0  0  0  0  0  0  0  0
    5.2681    3.6349    0.0000 C   0  0  0  0  0  0  0  0  0  0  0  0
    5.9372    2.8917    0.0000 C   0  0  0  0  0  0  0  0  0  0  0  0
    3.9810    2.4759    0.0000 C   0  0  0  0  0  0  0  0  0  0  0  0
    3.0028    2.2680    0.0000 C   0  0  0  0  0  0  0  0  0  0  0  0
    2.6938    1.3169    0.0000 N   0  0  0  0  0  0  0  0  0  0  0  0
    3.2858    0.5023    0.0000 C   0  0  0  0  0  0  0  0  0  0  0  0
    4.2858    0.5024    0.0000 O   0  0  0  0  0  0  0  0  0  0  0  0
    2.6938   -0.3125    0.0000 C   0  0  0  0  0  0  0  0  0  0  0  0
    2.2870   -1.2260    0.0000 O   0  0  0  0  0  0  0  0  0  0  0  0
    4.2093   -1.1876    0.0000 C   0  0  0  0  0  0  0  0  0  0  0  0
    5.0761   -0.6888    0.0000 C   0  0  0  0  0  0  0  0  0  0  0  0
    5.9443   -1.1851    0.0000 C   0  0  0  0  0  0  0  0  0  0  0  0
    5.9457   -2.1903    0.0000 C   0  0  0  0  0  0  0  0  0  0  0  0
    5.0790   -2.6992    0.0000 C   0  0  0  0  0  0  0  0  0  0  0  0
    4.2107   -2.1928    0.0000 C   0  0  0  0  0  0  0  0  0  0  0  0
    3.3439   -2.6914    0.0000 Cl  0  0  0  0  0  0  0  0  0  0  0  0
    1.7360   -0.0012    0.0000 C   0  0  0  0  0  0  0  0  0  0  0  0
    1.7360    1.0058    0.0000 C   0  0  0  0  0  0  0  0  0  0  0  0
    0.8680    1.5138    0.0000 C   0  0  0  0  0  0  0  0  0  0  0  0
    0.0000    1.0058    0.0000 C   0  0  0  0  0  0  0  0  0  0  0  0
    0.0000    0.0000    0.0000 C   0  0  0  0  0  0  0  0  0  0  0  0
    0.8680   -0.4978    0.0000 C   0  0  0  0  0  0  0  0  0  0  0  0
    0.8671   -2.2478    0.0000 C   0  0  0  0  0  0  0  0  0  0  0  0
    1.8671   -2.2483    0.0000 F   0  0  0  0  0  0  0  0  0  0  0  0
   -0.1329   -2.2473    0.0000 F   0  0  0  0  0  0  0  0  0  0  0  0
    0.8666   -3.2478    0.0000 F   0  0  0  0  0  0  0  0  0  0  0  0
   -0.8675    1.5032    0.0000 C   0  0  0  0  0  0  0  0  0  0  0  0
   -0.8705    2.5032    0.0000 O   0  0  0  0  0  0  0  0  0  0  0  0
   -1.7320    1.0007    0.0000 N   0  0  0  0  0  0  0  0  0  0  0  0
  1  2  1  0
  2  3  1  0
  3  4  1  0
  4  5  1  0
  3  6  1  0
  6  7  1  0
  7  8  1  0
  8 21  1  0
  8  9  1  0
  9 10  2  0
  9 11  1  0
 11 12  1  6
 11 13  1  0
 13 18  1  0
 13 14  2  0
 14 15  1  0
 15 16  2  0
 16 17  1  0
 17 18  2  0
 18 19  1  0
 11 20  1  0
 20 25  1  0
 20 21  2  0
 21 22  1  0
 22 23  2  0
 23 24  1  0
 24 25  2  0
 25 26  1  0
 26 27  1  0
 26 28  1  0
 26 29  1  0
 23 30  1  0
 30 31  2  0
 30 32  1  0
M  END
>  <SMILES>  (648) 
CCN(CC)CCN1C(=O)[C@@](O)(c2ccccc2Cl)c2c1cc(C(N)=O)cc2C(F)(F)F

>  <CollectionName>  (648) 
chembl

>  <LOG PLASMA PROTEIN BINDING (RAT) (% unbound)>  (648) 
1.32654066852

>  <Internal ID>  (648) 


>  <Source>  (648) 
AstraZeneca

$$$$
CHEMBL361812
     RDKit          2D

 29 32  0  0  1  0  0  0  0  0999 V2000
    4.1945    4.1244    0.0000 O   0  0  0  0  0  0  0  0  0  0  0  0
    3.3292    3.6232    0.0000 C   0  0  0  0  0  0  0  0  0  0  0  0
    2.4625    4.1220    0.0000 O   0  0  0  0  0  0  0  0  0  0  0  0
    3.3306    2.6232    0.0000 C   0  0  0  0  0  0  0  0  0  0  0  0
    2.4652    2.1220    0.0000 C   0  0  0  0  0  0  0  0  0  0  0  0
    2.4666    1.1220    0.0000 N   0  0  0  0  0  0  0  0  0  0  0  0
    3.2835    0.5280    0.0000 C   0  0  0  0  0  0  0  0  0  0  0  0
    4.2719    0.7349    0.0000 C   0  0  0  0  0  0  0  0  0  0  0  0
    4.9434   -0.0258    0.0000 C   0  0  0  0  0  0  0  0  0  0  0  0
    4.6229   -0.9863    0.0000 C   0  0  0  0  0  0  0  0  0  0  0  0
    3.6310   -1.1862    0.0000 C   0  0  0  0  0  0  0  0  0  0  0  0
    2.9631   -0.4326    0.0000 C   0  0  0  0  0  0  0  0  0  0  0  0
    1.9631   -0.4291    0.0000 C   0  0  0  0  0  0  0  0  0  0  0  0
    1.2916   -1.1750    0.0000 C   0  0  0  0  0  0  0  0  0  0  0  0
    0.3065   -0.9587    0.0000 C   0  0  0  0  0  0  0  0  0  0  0  0
    0.0000    0.0000    0.0000 C   0  0  0  0  0  0  0  0  0  0  0  0
    0.6786    0.7423    0.0000 C   0  0  0  0  0  0  0  0  0  0  0  0
    1.6566    0.5296    0.0000 C   0  0  0  0  0  0  0  0  0  0  0  0
    5.2851   -1.7356    0.0000 N   0  0  0  0  0  0  0  0  0  0  0  0
    6.2652   -1.5367    0.0000 S   0  0  0  0  0  0  0  0  0  0  0  0
    6.4640   -2.5168    0.0000 O   0  0  0  0  0  0  0  0  0  0  0  0
    6.0663   -0.5567    0.0000 O   0  0  0  0  0  0  0  0  0  0  0  0
    7.2452   -1.3379    0.0000 C   0  0  0  0  0  0  0  0  0  0  0  0
    7.5618   -0.3838    0.0000 C   0  0  0  0  0  0  0  0  0  0  0  0
    8.5419   -0.1849    0.0000 C   0  0  0  0  0  0  0  0  0  0  0  0
    9.2085   -0.9303    0.0000 C   0  0  0  0  0  0  0  0  0  0  0  0
   10.1876   -0.7272    0.0000 F   0  0  0  0  0  0  0  0  0  0  0  0
    8.8919   -1.8844    0.0000 C   0  0  0  0  0  0  0  0  0  0  0  0
    7.9086   -2.0930    0.0000 C   0  0  0  0  0  0  0  0  0  0  0  0
  1  2  1  0
  2  3  2  0
  2  4  1  0
  4  5  1  0
  5  6  1  0
  6 18  1  0
  6  7  1  0
  7 12  2  0
  7  8  1  0
  8  9  1  0
  9 10  1  0
 10 11  1  0
 11 12  1  0
 12 13  1  0
 13 18  2  0
 13 14  1  0
 14 15  2  0
 15 16  1  0
 16 17  2  0
 17 18  1  0
 10 19  1  1
 19 20  1  0
 20 21  2  0
 20 22  2  0
 20 23  1  0
 23 29  1  0
 23 24  2  0
 24 25  1  0
 25 26  2  0
 26 27  1  0
 26 28  1  0
 28 29  2  0
M  END
>  <SMILES>  (649) 
O=C(O)CCn1c2c(c3ccccc31)C[C@H](NS(=O)(=O)c1ccc(F)cc1)CC2

>  <CollectionName>  (649) 
chembl

>  <LOG PLASMA PROTEIN BINDING (RAT) (% unbound)>  (649) 
0.515873843712

>  <Internal ID>  (649) 


>  <Source>  (649) 
AstraZeneca

$$$$
CHEMBL941
     RDKit          2D

 37 41  0  0  0  0  0  0  0  0999 V2000
   -8.6808   -3.0438    0.0000 C   0  0  0  0  0  0  0  0  0  0  0  0
   -7.8178   -2.5387    0.0000 N   0  0  0  0  0  0  0  0  0  0  0  0
   -7.8266   -1.5387    0.0000 C   0  0  0  0  0  0  0  0  0  0  0  0
   -6.9590   -1.0309    0.0000 C   0  0  0  0  0  0  0  0  0  0  0  0
   -6.0827   -1.5232    0.0000 N   0  0  0  0  0  0  0  0  0  0  0  0
   -5.2196   -1.0181    0.0000 C   0  0  0  0  0  0  0  0  0  0  0  0
   -4.3507   -1.5130    0.0000 C   0  0  0  0  0  0  0  0  0  0  0  0
   -4.3433   -2.5130    0.0000 C   0  0  0  0  0  0  0  0  0  0  0  0
   -3.4765   -3.0117    0.0000 C   0  0  0  0  0  0  0  0  0  0  0  0
   -2.6082   -2.5052    0.0000 C   0  0  0  0  0  0  0  0  0  0  0  0
   -2.6067   -1.5001    0.0000 C   0  0  0  0  0  0  0  0  0  0  0  0
   -3.4824   -1.0065    0.0000 C   0  0  0  0  0  0  0  0  0  0  0  0
   -1.7414   -3.0039    0.0000 C   0  0  0  0  0  0  0  0  0  0  0  0
   -1.7399   -4.0039    0.0000 O   0  0  0  0  0  0  0  0  0  0  0  0
   -0.8761   -2.5026    0.0000 N   0  0  0  0  0  0  0  0  0  0  0  0
   -0.0094   -3.0013    0.0000 C   0  0  0  0  0  0  0  0  0  0  0  0
   -0.0108   -4.0065    0.0000 C   0  0  0  0  0  0  0  0  0  0  0  0
    0.8559   -4.5053    0.0000 C   0  0  0  0  0  0  0  0  0  0  0  0
    1.7242   -4.0090    0.0000 C   0  0  0  0  0  0  0  0  0  0  0  0
    2.5887   -4.5115    0.0000 C   0  0  0  0  0  0  0  0  0  0  0  0
    1.7256   -3.0038    0.0000 C   0  0  0  0  0  0  0  0  0  0  0  0
    2.5938   -2.5076    0.0000 N   0  0  0  0  0  0  0  0  0  0  0  0
    2.5982   -1.5076    0.0000 C   0  0  0  0  0  0  0  0  0  0  0  0
    3.4724   -1.0115    0.0000 N   0  0  0  0  0  0  0  0  0  0  0  0
    3.4679   -0.0063    0.0000 C   0  0  0  0  0  0  0  0  0  0  0  0
    2.5981    0.4975    0.0000 C   0  0  0  0  0  0  0  0  0  0  0  0
    1.7328   -0.0038    0.0000 C   0  0  0  0  0  0  0  0  0  0  0  0
    1.7284   -1.0038    0.0000 N   0  0  0  0  0  0  0  0  0  0  0  0
    0.8675    0.4975    0.0000 C   0  0  0  0  0  0  0  0  0  0  0  0
    0.0000    0.0000    0.0000 C   0  0  0  0  0  0  0  0  0  0  0  0
   -0.8675    0.4975    0.0000 C   0  0  0  0  0  0  0  0  0  0  0  0
   -0.8675    1.5027    0.0000 C   0  0  0  0  0  0  0  0  0  0  0  0
   -0.0000    2.0104    0.0000 N   0  0  0  0  0  0  0  0  0  0  0  0
    0.8675    1.5027    0.0000 C   0  0  0  0  0  0  0  0  0  0  0  0
    0.8589   -2.4949    0.0000 C   0  0  0  0  0  0  0  0  0  0  0  0
   -6.0827   -2.5284    0.0000 C   0  0  0  0  0  0  0  0  0  0  0  0
   -6.9502   -3.0361    0.0000 C   0  0  0  0  0  0  0  0  0  0  0  0
  1  2  1  0
  2 37  1  0
  2  3  1  0
  3  4  1  0
  4  5  1  0
  5  6  1  0
  6  7  1  0
  7 12  1  0
  7  8  2  0
  8  9  1  0
  9 10  2  0
 10 11  1  0
 11 12  2  0
 10 13  1  0
 13 14  2  0
 13 15  1  0
 15 16  1  0
 16 35  1  0
 16 17  2  0
 17 18  1  0
 18 19  2  0
 19 20  1  0
 19 21  1  0
 21 22  1  0
 22 23  1  0
 23 28  1  0
 23 24  2  0
 24 25  1  0
 25 26  2  0
 26 27  1  0
 27 28  2  0
 27 29  1  0
 29 34  1  0
 29 30  2  0
 30 31  1  0
 31 32  2  0
 32 33  1  0
 33 34  2  0
 21 35  2  0
  5 36  1  0
 36 37  1  0
M  END
>  <SMILES>  (650) 
Cc1ccc(NC(=O)c2ccc(CN3CCN(C)CC3)cc2)cc1Nc1nccc(-c2cccnc2)n1

>  <CollectionName>  (650) 
chembl

>  <LOG PLASMA PROTEIN BINDING (RAT) (% unbound)>  (650) 
0.447158031342

>  <Internal ID>  (650) 


>  <Source>  (650) 
AstraZeneca

$$$$
CHEMBL1256967
     RDKit          2D

 34 36  0  0  1  0  0  0  0  0999 V2000
   -1.0510    5.9908    0.0000 C   0  0  0  0  0  0  0  0  0  0  0  0
   -0.0843    6.2467    0.0000 C   0  0  0  0  0  0  0  0  0  0  0  0
    0.1716    5.2800    0.0000 C   0  0  0  0  0  0  0  0  0  0  0  0
    0.8823    6.5027    0.0000 C   0  0  0  0  0  0  0  0  0  0  0  0
    1.7468    6.0001    0.0000 N   0  0  0  0  0  0  0  0  0  0  0  0
    1.7438    5.0001    0.0000 C   0  0  0  0  0  0  0  0  0  0  0  0
    0.8764    4.5027    0.0000 O   0  0  0  0  0  0  0  0  0  0  0  0
    2.6084    4.4976    0.0000 C   0  0  0  0  0  0  0  0  0  0  0  0
    2.6054    3.4976    0.0000 N   0  0  0  0  0  0  0  0  0  0  0  0
    1.7379    3.0001    0.0000 O   0  0  0  0  0  0  0  0  0  0  0  0
    1.7350    2.0001    0.0000 C   0  0  0  0  0  0  0  0  0  0  0  0
    0.8675    1.5027    0.0000 C   0  0  0  0  0  0  0  0  0  0  0  0
    0.8675    0.4975    0.0000 C   0  0  0  0  0  0  0  0  0  0  0  0
    0.0000    0.0000    0.0000 C   0  0  0  0  0  0  0  0  0  0  0  0
   -0.0000   -1.0000    0.0000 O   0  0  0  0  0  0  0  0  0  0  0  0
   -0.8675    0.4975    0.0000 C   0  0  0  0  0  0  0  0  0  0  0  0
   -0.8675    1.5027    0.0000 C   0  0  0  0  0  0  0  0  0  0  0  0
    0.0000    2.0104    0.0000 N   0  0  0  0  0  0  0  0  0  0  0  0
    0.0000    3.0104    0.0000 O   0  0  0  0  0  0  0  0  0  0  0  0
   -1.7328   -0.0038    0.0000 O   0  0  0  0  0  0  0  0  0  0  0  0
    3.4759    4.9950    0.0000 C   0  0  0  0  0  0  0  0  0  0  0  0
    4.3888    4.5868    0.0000 C   0  0  0  0  0  0  0  0  0  0  0  0
    5.0640    5.3250    0.0000 S   0  0  0  0  0  0  0  0  0  0  0  0
    4.5650    6.1970    0.0000 C   0  0  0  0  0  0  0  0  0  0  0  0
    4.9743    7.1094    0.0000 N   0  0  0  0  0  0  0  0  0  0  0  0
    3.5848    5.9906    0.0000 N   0  0  0  0  0  0  0  0  0  0  0  0
    0.6263    7.4693    0.0000 C   0  0  0  0  0  0  0  0  0  0  0  0
    1.1289    8.3338    0.0000 O   0  0  0  0  0  0  0  0  0  0  0  0
   -0.3403    7.2133    0.0000 N   0  0  0  0  0  0  0  0  0  0  0  0
   -1.2048    7.7159    0.0000 O   0  0  0  0  0  0  0  0  0  0  0  0
   -1.2019    8.7159    0.0000 S   0  0  0  0  0  0  0  0  0  0  0  0
   -2.2019    8.7188    0.0000 O   0  0  0  0  0  0  0  0  0  0  0  0
   -0.2019    8.7129    0.0000 O   0  0  0  0  0  0  0  0  0  0  0  0
   -1.1989    9.7159    0.0000 O   0  0  0  0  0  0  0  0  0  0  0  0
  1  2  1  0
  2 29  1  0
  2  3  1  0
  2  4  1  0
  4  5  1  1
  5  6  1  0
  6  7  2  0
  6  8  1  0
  8  9  2  0
  9 10  1  0
 10 11  1  0
 11 12  1  0
 12 18  1  0
 12 13  2  0
 13 14  1  0
 14 15  2  0
 14 16  1  0
 16 17  2  0
 17 18  1  0
 18 19  1  0
 16 20  1  0
  8 21  1  0
 21 26  1  0
 21 22  2  0
 22 23  1  0
 23 24  1  0
 24 25  1  0
 24 26  2  0
  4 27  1  0
 27 28  2  0
 27 29  1  0
 29 30  1  0
 30 31  1  0
 31 32  2  0
 31 33  2  0
 31 34  1  0
M  END
>  <SMILES>  (651) 
CC1(C)[C@H](NC(=O)/C(=N\OCc2cc(=O)c(O)cn2O)c2csc(N)n2)C(=O)N1OS(=O)(=O)O

>  <CollectionName>  (651) 
chembl

>  <LOG PLASMA PROTEIN BINDING (RAT) (% unbound)>  (651) 
1.09272064468

>  <Internal ID>  (651) 


>  <Source>  (651) 
AstraZeneca

$$$$
CHEMBL1270208
     RDKit          2D

 29 31  0  0  0  0  0  0  0  0999 V2000
    2.1080    4.3651    0.0000 F   0  0  0  0  0  0  0  0  0  0  0  0
    2.6054    3.4976    0.0000 C   0  0  0  0  0  0  0  0  0  0  0  0
    3.1029    2.6301    0.0000 F   0  0  0  0  0  0  0  0  0  0  0  0
    3.4729    3.9950    0.0000 F   0  0  0  0  0  0  0  0  0  0  0  0
    1.7379    3.0001    0.0000 C   0  0  0  0  0  0  0  0  0  0  0  0
    1.7350    2.0001    0.0000 O   0  0  0  0  0  0  0  0  0  0  0  0
    0.8675    1.5027    0.0000 C   0  0  0  0  0  0  0  0  0  0  0  0
   -0.0000    2.0104    0.0000 N   0  0  0  0  0  0  0  0  0  0  0  0
   -0.8675    1.5027    0.0000 C   0  0  0  0  0  0  0  0  0  0  0  0
   -0.8675    0.4975    0.0000 C   0  0  0  0  0  0  0  0  0  0  0  0
    0.0000    0.0000    0.0000 C   0  0  0  0  0  0  0  0  0  0  0  0
    0.8675    0.4975    0.0000 C   0  0  0  0  0  0  0  0  0  0  0  0
    1.7328   -0.0038    0.0000 C   0  0  0  0  0  0  0  0  0  0  0  0
    1.7313   -1.0038    0.0000 N   0  0  0  0  0  0  0  0  0  0  0  0
    2.5966   -1.5050    0.0000 C   0  0  0  0  0  0  0  0  0  0  0  0
    3.4634   -1.0063    0.0000 O   0  0  0  0  0  0  0  0  0  0  0  0
    2.5952   -2.5050    0.0000 C   0  0  0  0  0  0  0  0  0  0  0  0
    3.4643   -3.0101    0.0000 C   0  0  0  0  0  0  0  0  0  0  0  0
    3.4673   -4.0153    0.0000 N   0  0  0  0  0  0  0  0  0  0  0  0
    2.5924   -4.5102    0.0000 C   0  0  0  0  0  0  0  0  0  0  0  0
    1.7233   -4.0050    0.0000 C   0  0  0  0  0  0  0  0  0  0  0  0
    1.7291   -3.0050    0.0000 C   0  0  0  0  0  0  0  0  0  0  0  0
    0.8551   -4.5013    0.0000 C   0  0  0  0  0  0  0  0  0  0  0  0
    0.8493   -5.5013    0.0000 C   0  0  0  0  0  0  0  0  0  0  0  0
   -0.0167   -6.0013    0.0000 C   0  0  0  0  0  0  0  0  0  0  0  0
   -0.8858   -5.4962    0.0000 C   0  0  0  0  0  0  0  0  0  0  0  0
   -1.7518   -5.9962    0.0000 Cl  0  0  0  0  0  0  0  0  0  0  0  0
   -0.8888   -4.4910    0.0000 C   0  0  0  0  0  0  0  0  0  0  0  0
   -0.0139   -3.9961    0.0000 C   0  0  0  0  0  0  0  0  0  0  0  0
  1  2  1  0
  2  3  1  0
  2  4  1  0
  2  5  1  0
  5  6  1  0
  6  7  1  0
  7 12  2  0
  7  8  1  0
  8  9  2  0
  9 10  1  0
 10 11  2  0
 11 12  1  0
 12 13  1  0
 13 14  1  0
 14 15  1  0
 15 16  2  0
 15 17  1  0
 17 22  1  0
 17 18  2  0
 18 19  1  0
 19 20  2  0
 20 21  1  0
 21 22  2  0
 21 23  1  0
 23 29  1  0
 23 24  2  0
 24 25  1  0
 25 26  2  0
 26 27  1  0
 26 28  1  0
 28 29  2  0
M  END
>  <SMILES>  (652) 
O=C(NCc1cccnc1OCC(F)(F)F)c1cncc(-c2ccc(Cl)cc2)c1

>  <CollectionName>  (652) 
chembl

>  <LOG PLASMA PROTEIN BINDING (RAT) (% unbound)>  (652) 
-0.886056647693

>  <Internal ID>  (652) 


>  <Source>  (652) 
AstraZeneca

$$$$
CHEMBL1290183
     RDKit          2D

 27 30  0  0  0  0  0  0  0  0999 V2000
    3.9920   -1.7621    0.0000 Cl  0  0  0  0  0  0  0  0  0  0  0  0
    2.9920   -1.7516    0.0000 C   0  0  0  0  0  0  0  0  0  0  0  0
    2.4829   -2.6184    0.0000 C   0  0  0  0  0  0  0  0  0  0  0  0
    1.4829   -2.6079    0.0000 C   0  0  0  0  0  0  0  0  0  0  0  0
    0.9869   -1.7396    0.0000 C   0  0  0  0  0  0  0  0  0  0  0  0
    1.4960   -0.8729    0.0000 C   0  0  0  0  0  0  0  0  0  0  0  0
    1.0000   -0.0046    0.0000 C   0  0  0  0  0  0  0  0  0  0  0  0
    0.0000    0.0000    0.0000 N   0  0  0  0  0  0  0  0  0  0  0  0
   -0.5075   -0.8672    0.0000 C   0  0  0  0  0  0  0  0  0  0  0  0
   -1.5075   -0.8640    0.0000 C   0  0  0  0  0  0  0  0  0  0  0  0
   -2.0075    0.0084    0.0000 C   0  0  0  0  0  0  0  0  0  0  0  0
   -1.5075    0.8776    0.0000 C   0  0  0  0  0  0  0  0  0  0  0  0
   -0.4999    0.8724    0.0000 C   0  0  0  0  0  0  0  0  0  0  0  0
   -2.5125   -0.8640    0.0000 C   0  0  0  0  0  0  0  0  0  0  0  0
   -3.5227   -0.8640    0.0000 C   0  0  0  0  0  0  0  0  0  0  0  0
   -4.0306    0.0060    0.0000 N   0  0  0  0  0  0  0  0  0  0  0  0
   -3.5227    0.8816    0.0000 C   0  0  0  0  0  0  0  0  0  0  0  0
   -2.5125    0.8816    0.0000 C   0  0  0  0  0  0  0  0  0  0  0  0
   -5.0306    0.0046    0.0000 C   0  0  0  0  0  0  0  0  0  0  0  0
   -5.5294   -0.8621    0.0000 O   0  0  0  0  0  0  0  0  0  0  0  0
   -5.5318    0.8699    0.0000 C   0  0  0  0  0  0  0  0  0  0  0  0
   -6.5370    0.8656    0.0000 C   0  0  0  0  0  0  0  0  0  0  0  0
   -7.0383    1.7309    0.0000 C   0  0  0  0  0  0  0  0  0  0  0  0
   -6.5445    2.6005    0.0000 C   0  0  0  0  0  0  0  0  0  0  0  0
   -5.5393    2.6049    0.0000 C   0  0  0  0  0  0  0  0  0  0  0  0
   -5.0279    1.7396    0.0000 C   0  0  0  0  0  0  0  0  0  0  0  0
    2.5012   -0.8745    0.0000 C   0  0  0  0  0  0  0  0  0  0  0  0
  1  2  1  0
  2 27  2  0
  2  3  1  0
  3  4  2  0
  4  5  1  0
  5  6  2  0
  6  7  1  0
  7  8  1  0
  8 13  1  0
  8  9  1  0
  9 10  1  0
 10 11  1  0
 11 18  1  0
 11 12  1  0
 12 13  1  0
 11 14  1  0
 14 15  1  0
 15 16  1  0
 16 17  1  0
 17 18  1  0
 16 19  1  0
 19 20  2  0
 19 21  1  0
 21 26  1  0
 21 22  2  0
 22 23  1  0
 23 24  2  0
 24 25  1  0
 25 26  2  0
  6 27  1  0
M  END
>  <SMILES>  (653) 
O=C(c1ccccc1)N1CCC2(CCN(Cc3cccc(Cl)c3)CC2)CC1

>  <CollectionName>  (653) 
chembl

>  <LOG PLASMA PROTEIN BINDING (RAT) (% unbound)>  (653) 
1.22089224922

>  <Internal ID>  (653) 


>  <Source>  (653) 
AstraZeneca

$$$$
CHEMBL1290184
     RDKit          2D

 27 30  0  0  0  0  0  0  0  0999 V2000
    0.9944   -3.4746    0.0000 C   0  0  0  0  0  0  0  0  0  0  0  0
    1.4932   -2.6079    0.0000 C   0  0  0  0  0  0  0  0  0  0  0  0
    2.4984   -2.6095    0.0000 C   0  0  0  0  0  0  0  0  0  0  0  0
    2.9973   -1.7428    0.0000 C   0  0  0  0  0  0  0  0  0  0  0  0
    2.5012   -0.8745    0.0000 C   0  0  0  0  0  0  0  0  0  0  0  0
    1.4960   -0.8729    0.0000 C   0  0  0  0  0  0  0  0  0  0  0  0
    1.0000   -0.0046    0.0000 C   0  0  0  0  0  0  0  0  0  0  0  0
    0.0000    0.0000    0.0000 N   0  0  0  0  0  0  0  0  0  0  0  0
   -0.5075   -0.8672    0.0000 C   0  0  0  0  0  0  0  0  0  0  0  0
   -1.5075   -0.8640    0.0000 C   0  0  0  0  0  0  0  0  0  0  0  0
   -2.0075    0.0084    0.0000 C   0  0  0  0  0  0  0  0  0  0  0  0
   -1.5075    0.8776    0.0000 C   0  0  0  0  0  0  0  0  0  0  0  0
   -0.4999    0.8724    0.0000 C   0  0  0  0  0  0  0  0  0  0  0  0
   -2.5125   -0.8640    0.0000 C   0  0  0  0  0  0  0  0  0  0  0  0
   -3.5227   -0.8640    0.0000 C   0  0  0  0  0  0  0  0  0  0  0  0
   -4.0306    0.0060    0.0000 N   0  0  0  0  0  0  0  0  0  0  0  0
   -3.5227    0.8816    0.0000 C   0  0  0  0  0  0  0  0  0  0  0  0
   -2.5125    0.8816    0.0000 C   0  0  0  0  0  0  0  0  0  0  0  0
   -5.0306    0.0046    0.0000 C   0  0  0  0  0  0  0  0  0  0  0  0
   -5.5294   -0.8621    0.0000 O   0  0  0  0  0  0  0  0  0  0  0  0
   -5.5318    0.8699    0.0000 C   0  0  0  0  0  0  0  0  0  0  0  0
   -6.5370    0.8656    0.0000 C   0  0  0  0  0  0  0  0  0  0  0  0
   -7.0383    1.7309    0.0000 C   0  0  0  0  0  0  0  0  0  0  0  0
   -6.5445    2.6005    0.0000 C   0  0  0  0  0  0  0  0  0  0  0  0
   -5.5393    2.6049    0.0000 C   0  0  0  0  0  0  0  0  0  0  0  0
   -5.0279    1.7396    0.0000 C   0  0  0  0  0  0  0  0  0  0  0  0
    0.9869   -1.7395    0.0000 C   0  0  0  0  0  0  0  0  0  0  0  0
  1  2  1  0
  2 27  2  0
  2  3  1  0
  3  4  2  0
  4  5  1  0
  5  6  2  0
  6  7  1  0
  7  8  1  0
  8 13  1  0
  8  9  1  0
  9 10  1  0
 10 11  1  0
 11 18  1  0
 11 12  1  0
 12 13  1  0
 11 14  1  0
 14 15  1  0
 15 16  1  0
 16 17  1  0
 17 18  1  0
 16 19  1  0
 19 20  2  0
 19 21  1  0
 21 26  1  0
 21 22  2  0
 22 23  1  0
 23 24  2  0
 24 25  1  0
 25 26  2  0
  6 27  1  0
M  END
>  <SMILES>  (654) 
Cc1cccc(CN2CCC3(CC2)CCN(C(=O)c2ccccc2)CC3)c1

>  <CollectionName>  (654) 
chembl

>  <LOG PLASMA PROTEIN BINDING (RAT) (% unbound)>  (654) 
1.66256896693

>  <Internal ID>  (654) 


>  <Source>  (654) 
AstraZeneca

$$$$
CHEMBL321758
     RDKit          2D

 24 26  0  0  1  0  0  0  0  0999 V2000
   -0.8660    3.5104    0.0000 C   0  0  0  0  0  0  0  0  0  0  0  0
   -0.0000    3.0104    0.0000 C   0  0  0  0  0  0  0  0  0  0  0  0
    0.8660    3.5104    0.0000 C   0  0  0  0  0  0  0  0  0  0  0  0
    1.7321    3.0104    0.0000 O   0  0  0  0  0  0  0  0  0  0  0  0
    0.8660    4.5104    0.0000 C   0  0  0  0  0  0  0  0  0  0  0  0
    1.7314    5.0117    0.0000 C   0  0  0  0  0  0  0  0  0  0  0  0
    1.7357    6.0117    0.0000 C   0  0  0  0  0  0  0  0  0  0  0  0
    0.8659    6.5156    0.0000 C   0  0  0  0  0  0  0  0  0  0  0  0
    0.8703    7.5155    0.0000 O   0  0  0  0  0  0  0  0  0  0  0  0
   -0.0082    6.0194    0.0000 C   0  0  0  0  0  0  0  0  0  0  0  0
   -0.0038    5.0143    0.0000 C   0  0  0  0  0  0  0  0  0  0  0  0
   -0.0000    2.0104    0.0000 N   0  0  0  0  0  0  0  0  0  0  0  0
   -0.8675    1.5027    0.0000 C   0  0  0  0  0  0  0  0  0  0  0  0
   -0.8675    0.4975    0.0000 C   0  0  0  0  0  0  0  0  0  0  0  0
    0.0000    0.0000    0.0000 C   0  0  0  0  0  0  0  0  0  0  0  0
   -0.6420   -0.7667    0.0000 O   0  0  0  0  0  0  0  0  0  0  0  0
    0.8675    0.4975    0.0000 C   0  0  0  0  0  0  0  0  0  0  0  0
    0.8675    1.5027    0.0000 C   0  0  0  0  0  0  0  0  0  0  0  0
    0.6420   -0.7667    0.0000 C   0  0  0  0  0  0  0  0  0  0  0  0
    1.6316   -0.5902    0.0000 C   0  0  0  0  0  0  0  0  0  0  0  0
    2.2737   -1.3568    0.0000 C   0  0  0  0  0  0  0  0  0  0  0  0
    1.9363   -2.2982    0.0000 C   0  0  0  0  0  0  0  0  0  0  0  0
    0.9467   -2.4747    0.0000 C   0  0  0  0  0  0  0  0  0  0  0  0
    0.2946   -1.7098    0.0000 C   0  0  0  0  0  0  0  0  0  0  0  0
  2  1  1  6
  2  3  1  0
  3  4  1  1
  3  5  1  0
  5 11  1  0
  5  6  2  0
  6  7  1  0
  7  8  2  0
  8  9  1  0
  8 10  1  0
 10 11  2  0
  2 12  1  0
 12 18  1  0
 12 13  1  0
 13 14  1  0
 14 15  1  0
 15 16  1  0
 15 17  1  0
 17 18  1  0
 15 19  1  0
 19 24  1  0
 19 20  2  0
 20 21  1  0
 21 22  2  0
 22 23  1  0
 23 24  2  0
M  END
>  <SMILES>  (655) 
C[C@H]([C@H](O)c1ccc(O)cc1)N1CCC(O)(c2ccccc2)CC1

>  <CollectionName>  (655) 
chembl

>  <LOG PLASMA PROTEIN BINDING (RAT) (% unbound)>  (655) 
1.78368923635

>  <Internal ID>  (655) 


>  <Source>  (655) 
AstraZeneca

$$$$
CHEMBL322479
     RDKit          2D

 31 33  0  0  0  0  0  0  0  0999 V2000
    2.1001    5.3798    0.0000 C   0  0  0  0  0  0  0  0  0  0  0  0
    2.6001    4.5138    0.0000 C   0  0  0  0  0  0  0  0  0  0  0  0
    3.1001    3.6478    0.0000 C   0  0  0  0  0  0  0  0  0  0  0  0
    3.4661    5.0138    0.0000 C   0  0  0  0  0  0  0  0  0  0  0  0
    3.4661    6.0138    0.0000 C   0  0  0  0  0  0  0  0  0  0  0  0
    4.3321    6.5138    0.0000 C   0  0  0  0  0  0  0  0  0  0  0  0
    4.3321    7.5138    0.0000 C   0  0  0  0  0  0  0  0  0  0  0  0
    5.1981    8.0138    0.0000 C   0  0  0  0  0  0  0  0  0  0  0  0
    5.1981    9.0138    0.0000 O   0  0  0  0  0  0  0  0  0  0  0  0
    6.0642    9.5138    0.0000 C   0  0  0  0  0  0  0  0  0  0  0  0
    6.0642   10.5138    0.0000 C   0  0  0  0  0  0  0  0  0  0  0  0
    6.9302   11.0138    0.0000 C   0  0  0  0  0  0  0  0  0  0  0  0
    6.9272   12.0190    0.0000 C   0  0  0  0  0  0  0  0  0  0  0  0
    7.7932   12.5191    0.0000 C   0  0  0  0  0  0  0  0  0  0  0  0
    8.6622   12.0241    0.0000 C   0  0  0  0  0  0  0  0  0  0  0  0
    8.6652   11.0189    0.0000 C   0  0  0  0  0  0  0  0  0  0  0  0
    7.7992   10.5087    0.0000 C   0  0  0  0  0  0  0  0  0  0  0  0
    1.7340    4.0138    0.0000 N   0  0  0  0  0  0  0  0  0  0  0  0
    1.7340    3.0138    0.0000 C   0  0  0  0  0  0  0  0  0  0  0  0
    0.8680    2.5138    0.0000 C   0  0  0  0  0  0  0  0  0  0  0  0
    0.8680    1.5138    0.0000 C   0  0  0  0  0  0  0  0  0  0  0  0
    0.0000    1.0058    0.0000 C   0  0  0  0  0  0  0  0  0  0  0  0
    0.0000    0.0000    0.0000 C   0  0  0  0  0  0  0  0  0  0  0  0
    0.8680   -0.4978    0.0000 C   0  0  0  0  0  0  0  0  0  0  0  0
    0.8675   -1.4978    0.0000 O   0  0  0  0  0  0  0  0  0  0  0  0
    1.7360   -0.0012    0.0000 C   0  0  0  0  0  0  0  0  0  0  0  0
    2.6938   -0.3125    0.0000 N   0  0  0  0  0  0  0  0  0  0  0  0
    3.2858    0.5023    0.0000 C   0  0  0  0  0  0  0  0  0  0  0  0
    4.2858    0.5024    0.0000 O   0  0  0  0  0  0  0  0  0  0  0  0
    2.6938    1.3169    0.0000 S   0  0  0  0  0  0  0  0  0  0  0  0
    1.7360    1.0058    0.0000 C   0  0  0  0  0  0  0  0  0  0  0  0
  1  2  1  0
  2  3  1  0
  2  4  1  0
  4  5  1  0
  5  6  1  0
  6  7  1  0
  7  8  1  0
  8  9  1  0
  9 10  1  0
 10 11  1  0
 11 12  1  0
 12 17  1  0
 12 13  2  0
 13 14  1  0
 14 15  2  0
 15 16  1  0
 16 17  2  0
  2 18  1  0
 18 19  1  0
 19 20  1  0
 20 21  1  0
 21 31  1  0
 21 22  2  0
 22 23  1  0
 23 24  2  0
 24 25  1  0
 24 26  1  0
 26 31  2  0
 26 27  1  0
 27 28  2  0
 28 29  1  0
 28 30  1  0
 30 31  1  0
M  END
>  <SMILES>  (656) 
CC(C)(CCCCCOCCc1ccccc1)NCCc1ccc(O)c2nc(O)sc12

>  <CollectionName>  (656) 
chembl

>  <LOG PLASMA PROTEIN BINDING (RAT) (% unbound)>  (656) 
0.35983548234

>  <Internal ID>  (656) 


>  <Source>  (656) 
AstraZeneca

$$$$
CHEMBL1240967
     RDKit          2D

 44 47  0  0  1  0  0  0  0  0999 V2000
    3.6054    2.4997    0.0000 C   0  0  0  0  0  0  0  0  0  0  0  0
    2.6054    2.5026    0.0000 C   0  0  0  0  0  0  0  0  0  0  0  0
    1.6055    2.5056    0.0000 C   0  0  0  0  0  0  0  0  0  0  0  0
    2.6025    1.5026    0.0000 C   0  0  0  0  0  0  0  0  0  0  0  0
    1.7350    1.0052    0.0000 C   0  0  0  0  0  0  0  0  0  0  0  0
    1.7350   -0.0000    0.0000 C   0  0  0  0  0  0  0  0  0  0  0  0
    0.8675   -0.4975    0.0000 C   0  0  0  0  0  0  0  0  0  0  0  0
    0.0000    0.0000    0.0000 C   0  0  0  0  0  0  0  0  0  0  0  0
    0.0000    1.0052    0.0000 C   0  0  0  0  0  0  0  0  0  0  0  0
   -0.8675    1.5026    0.0000 C   0  0  0  0  0  0  0  0  0  0  0  0
   -1.7320    1.0001    0.0000 C   0  0  0  0  0  0  0  0  0  0  0  0
   -1.7291    0.0001    0.0000 O   0  0  0  0  0  0  0  0  0  0  0  0
   -2.5995    1.4975    0.0000 N   0  0  0  0  0  0  0  0  0  0  0  0
   -3.4641    0.9950    0.0000 C   0  0  0  0  0  0  0  0  0  0  0  0
   -4.3316    1.4924    0.0000 C   0  0  0  0  0  0  0  0  0  0  0  0
   -4.3316    2.4976    0.0000 C   0  0  0  0  0  0  0  0  0  0  0  0
   -5.1991    2.9951    0.0000 C   0  0  0  0  0  0  0  0  0  0  0  0
   -6.0666    2.4976    0.0000 C   0  0  0  0  0  0  0  0  0  0  0  0
   -6.0666    1.4924    0.0000 C   0  0  0  0  0  0  0  0  0  0  0  0
   -5.1991    0.9847    0.0000 C   0  0  0  0  0  0  0  0  0  0  0  0
   -6.9341    0.9950    0.0000 C   0  0  0  0  0  0  0  0  0  0  0  0
   -7.7994    1.4963    0.0000 C   0  0  0  0  0  0  0  0  0  0  0  0
   -8.6691    1.0026    0.0000 C   0  0  0  0  0  0  0  0  0  0  0  0
   -8.6735   -0.0026    0.0000 C   0  0  0  0  0  0  0  0  0  0  0  0
   -9.5432   -0.4962    0.0000 O   0  0  0  0  0  0  0  0  0  0  0  0
   -7.8082   -0.5141    0.0000 C   0  0  0  0  0  0  0  0  0  0  0  0
   -6.9385   -0.0102    0.0000 C   0  0  0  0  0  0  0  0  0  0  0  0
    0.8675    1.5129    0.0000 C   0  0  0  0  0  0  0  0  0  0  0  0
    2.6084    3.5026    0.0000 N   0  0  0  0  0  0  0  0  0  0  0  0
    1.7439    4.0052    0.0000 C   0  0  0  0  0  0  0  0  0  0  0  0
    1.7468    5.0052    0.0000 C   0  0  0  0  0  0  0  0  0  0  0  0
    2.6143    5.5026    0.0000 O   0  0  0  0  0  0  0  0  0  0  0  0
    0.8823    5.5077    0.0000 C   0  0  0  0  0  0  0  0  0  0  0  0
    0.8882    6.5129    0.0000 C   0  0  0  0  0  0  0  0  0  0  0  0
    0.0236    7.0155    0.0000 C   0  0  0  0  0  0  0  0  0  0  0  0
   -0.8468    6.5232    0.0000 C   0  0  0  0  0  0  0  0  0  0  0  0
   -1.7091    7.0295    0.0000 O   0  0  0  0  0  0  0  0  0  0  0  0
   -0.8527    5.5180    0.0000 C   0  0  0  0  0  0  0  0  0  0  0  0
   -1.7231    5.0257    0.0000 N   0  0  0  0  0  0  0  0  0  0  0  0
   -1.7320    4.0257    0.0000 S   0  0  0  0  0  0  0  0  0  0  0  0
   -2.7319    4.0346    0.0000 O   0  0  0  0  0  0  0  0  0  0  0  0
   -0.7320    4.0168    0.0000 O   0  0  0  0  0  0  0  0  0  0  0  0
   -1.7408    3.0257    0.0000 C   0  0  0  0  0  0  0  0  0  0  0  0
    0.0118    5.0052    0.0000 C   0  0  0  0  0  0  0  0  0  0  0  0
  1  2  1  0
  2  3  1  0
  2  4  1  0
  4  5  1  0
  5 28  1  0
  5  6  2  0
  6  7  1  0
  7  8  2  0
  8  9  1  0
  9 10  1  0
 10 11  1  0
 11 12  2  0
 11 13  1  0
 13 14  1  0
 14 15  1  0
 15 20  1  0
 15 16  2  0
 16 17  1  0
 17 18  2  0
 18 19  1  0
 19 20  2  0
 19 21  1  0
 21 27  1  0
 21 22  2  0
 22 23  1  0
 23 24  2  0
 24 25  1  0
 24 26  1  0
 26 27  2  0
  9 28  2  0
  2 29  1  0
 29 30  1  0
 30 31  1  0
 31 32  1  1
 31 33  1  0
 33 44  1  0
 33 34  2  0
 34 35  1  0
 35 36  2  0
 36 37  1  0
 36 38  1  0
 38 39  1  0
 39 40  1  0
 40 41  2  0
 40 42  2  0
 40 43  1  0
 38 44  2  0
M  END
>  <SMILES>  (657) 
CC(C)(Cc1cccc(CC(=O)NCc2cccc(-c3ccc(O)cc3)c2)c1)NC[C@H](O)c1ccc(O)c(NS(C)(=O)=O)c1

>  <CollectionName>  (657) 
chembl

>  <LOG PLASMA PROTEIN BINDING (RAT) (% unbound)>  (657) 
0.912753303671

>  <Internal ID>  (657) 


>  <Source>  (657) 
AstraZeneca

$$$$
CHEMBL423
     RDKit          2D

 22 23  0  0  1  0  0  0  0  0999 V2000
    7.7986    1.4873    0.0000 C   0  0  0  0  0  0  0  0  0  0  0  0
    6.9311    0.9899    0.0000 C   0  0  0  0  0  0  0  0  0  0  0  0
    6.9282   -0.0101    0.0000 C   0  0  0  0  0  0  0  0  0  0  0  0
    6.0666    1.4924    0.0000 N   0  0  0  0  0  0  0  0  0  0  0  0
    5.1991    0.9950    0.0000 C   0  0  0  0  0  0  0  0  0  0  0  0
    4.3345    1.4975    0.0000 C   0  0  0  0  0  0  0  0  0  0  0  0
    4.3375    2.4975    0.0000 O   0  0  0  0  0  0  0  0  0  0  0  0
    3.4670    1.0001    0.0000 C   0  0  0  0  0  0  0  0  0  0  0  0
    2.6025    1.5026    0.0000 O   0  0  0  0  0  0  0  0  0  0  0  0
    1.7350    1.0052    0.0000 C   0  0  0  0  0  0  0  0  0  0  0  0
    1.7350    0.0000    0.0000 C   0  0  0  0  0  0  0  0  0  0  0  0
    0.8675   -0.4975    0.0000 C   0  0  0  0  0  0  0  0  0  0  0  0
    0.0000    0.0000    0.0000 C   0  0  0  0  0  0  0  0  0  0  0  0
   -0.8653   -0.5013    0.0000 C   0  0  0  0  0  0  0  0  0  0  0  0
   -1.7320   -0.0025    0.0000 C   0  0  0  0  0  0  0  0  0  0  0  0
   -2.5973   -0.5038    0.0000 O   0  0  0  0  0  0  0  0  0  0  0  0
   -3.4641   -0.0050    0.0000 C   0  0  0  0  0  0  0  0  0  0  0  0
   -4.3294   -0.5063    0.0000 C   0  0  0  0  0  0  0  0  0  0  0  0
   -5.3313   -0.5088    0.0000 C   0  0  0  0  0  0  0  0  0  0  0  0
   -4.8300   -1.3741    0.0000 C   0  0  0  0  0  0  0  0  0  0  0  0
   -0.0000    1.0052    0.0000 C   0  0  0  0  0  0  0  0  0  0  0  0
    0.8675    1.5129    0.0000 C   0  0  0  0  0  0  0  0  0  0  0  0
  1  2  1  0
  2  3  1  0
  2  4  1  0
  4  5  1  0
  5  6  1  0
  6  7  1  0
  6  8  1  0
  8  9  1  0
  9 10  1  0
 10 22  2  0
 10 11  1  0
 11 12  2  0
 12 13  1  0
 13 14  1  0
 14 15  1  0
 15 16  1  0
 16 17  1  0
 17 18  1  0
 18 20  1  0
 18 19  1  0
 19 20  1  0
 13 21  2  0
 21 22  1  0
M  END
>  <SMILES>  (658) 
CC(C)NCC(O)COc1ccc(CCOCC2CC2)cc1

>  <CollectionName>  (658) 
chembl

>  <LOG PLASMA PROTEIN BINDING (RAT) (% unbound)>  (658) 
1.61161711055

>  <Internal ID>  (658) 


>  <Source>  (658) 
AstraZeneca

$$$$
CHEMBL1201391
     RDKit          2D

 31 32  0  0  1  0  0  0  0  0999 V2000
    0.8679    5.5135    0.0000 C   0  0  0  0  0  0  0  0  0  0  0  0
    0.0019    5.0135    0.0000 C   0  0  0  0  0  0  0  0  0  0  0  0
    0.0019    4.0135    0.0000 C   0  0  0  0  0  0  0  0  0  0  0  0
   -0.9981    4.0135    0.0000 C   0  0  0  0  0  0  0  0  0  0  0  0
    1.0019    4.0135    0.0000 C   0  0  0  0  0  0  0  0  0  0  0  0
    0.0019    3.0135    0.0000 C   0  0  0  0  0  0  0  0  0  0  0  0
   -0.8642    2.5135    0.0000 O   0  0  0  0  0  0  0  0  0  0  0  0
    0.8679    2.5135    0.0000 O   0  0  0  0  0  0  0  0  0  0  0  0
    0.8679    1.5135    0.0000 C   0  0  0  0  0  0  0  0  0  0  0  0
    0.0000    1.0057    0.0000 C   0  0  0  0  0  0  0  0  0  0  0  0
    0.0000    0.0000    0.0000 C   0  0  0  0  0  0  0  0  0  0  0  0
   -0.8653   -0.5012    0.0000 C   0  0  0  0  0  0  0  0  0  0  0  0
    0.8679   -0.4978    0.0000 C   0  0  0  0  0  0  0  0  0  0  0  0
    1.7371    0.0000    0.0000 C   0  0  0  0  0  0  0  0  0  0  0  0
    2.6038   -0.4989    0.0000 C   0  0  0  0  0  0  0  0  0  0  0  0
    3.4748    0.0022    0.0000 C   0  0  0  0  0  0  0  0  0  0  0  0
    3.4735    1.0079    0.0000 C   0  0  0  0  0  0  0  0  0  0  0  0
    4.3394    1.5081    0.0000 C   0  0  0  0  0  0  0  0  0  0  0  0
    2.6012    1.5124    0.0000 C   0  0  0  0  0  0  0  0  0  0  0  0
    2.5985    2.5124    0.0000 C   0  0  0  0  0  0  0  0  0  0  0  0
    3.4632    3.0147    0.0000 C   0  0  0  0  0  0  0  0  0  0  0  0
    3.4605    4.0147    0.0000 C   0  0  0  0  0  0  0  0  0  0  0  0
    2.5932    4.5124    0.0000 O   0  0  0  0  0  0  0  0  0  0  0  0
    4.3252    4.5170    0.0000 C   0  0  0  0  0  0  0  0  0  0  0  0
    4.3226    5.5170    0.0000 C   0  0  0  0  0  0  0  0  0  0  0  0
    3.4552    6.0147    0.0000 O   0  0  0  0  0  0  0  0  0  0  0  0
    5.1872    6.0193    0.0000 C   0  0  0  0  0  0  0  0  0  0  0  0
    5.1846    7.0193    0.0000 C   0  0  0  0  0  0  0  0  0  0  0  0
    4.3172    7.5170    0.0000 O   0  0  0  0  0  0  0  0  0  0  0  0
    6.0493    7.5216    0.0000 O   0  0  0  0  0  0  0  0  0  0  0  0
    1.7358    1.0057    0.0000 C   0  0  0  0  0  0  0  0  0  0  0  0
  1  2  1  0
  2  3  1  0
  3  4  1  0
  3  5  1  0
  3  6  1  0
  6  7  2  0
  6  8  1  0
  9  8  1  6
  9 31  1  0
  9 10  1  0
 10 11  1  0
 11 12  1  6
 11 13  1  0
 13 14  2  0
 31 14  1  6
 14 15  1  0
 15 16  2  0
 16 17  1  0
 17 18  1  1
 17 19  1  0
 19 20  1  1
 20 21  1  0
 21 22  1  0
 22 23  1  1
 22 24  1  0
 24 25  1  0
 25 26  1  1
 25 27  1  0
 27 28  1  0
 28 29  2  0
 28 30  1  0
 19 31  1  0
M  END
>  <SMILES>  (659) 
CCC(C)(C)C(=O)O[C@H]1C[C@@H](C)C=C2C=C[C@H](C)[C@H](CC[C@@H](O)C[C@@H](O)CC(=O)O)[C@H]21

>  <CollectionName>  (659) 
chembl

>  <LOG PLASMA PROTEIN BINDING (RAT) (% unbound)>  (659) 
0.380211241712

>  <Internal ID>  (659) 


>  <Source>  (659) 
AstraZeneca

$$$$
CHEMBL1204759
     RDKit          2D

 28 30  0  0  0  0  0  0  0  0999 V2000
   -1.2577    1.2605    0.0000 C   0  0  0  0  0  0  0  0  0  0  0  0
   -0.3065    0.9519    0.0000 C   0  0  0  0  0  0  0  0  0  0  0  0
    0.5008    1.5428    0.0000 N   0  0  0  0  0  0  0  0  0  0  0  0
    1.3133    0.9519    0.0000 N   0  0  0  0  0  0  0  0  0  0  0  0
    1.0015   -0.0000    0.0000 C   0  0  0  0  0  0  0  0  0  0  0  0
    1.5883   -0.8097    0.0000 N   0  0  0  0  0  0  0  0  0  0  0  0
    1.1805   -1.7228    0.0000 C   0  0  0  0  0  0  0  0  0  0  0  0
    0.1859   -1.8261    0.0000 O   0  0  0  0  0  0  0  0  0  0  0  0
    1.7673   -2.5325    0.0000 N   0  0  0  0  0  0  0  0  0  0  0  0
    1.3595   -3.4456    0.0000 S   0  0  0  0  0  0  0  0  0  0  0  0
    0.4464   -3.0377    0.0000 O   0  0  0  0  0  0  0  0  0  0  0  0
    2.2726   -3.8534    0.0000 O   0  0  0  0  0  0  0  0  0  0  0  0
    0.9517   -4.3586    0.0000 C   0  0  0  0  0  0  0  0  0  0  0  0
   -0.0429   -4.4634    0.0000 C   0  0  0  0  0  0  0  0  0  0  0  0
   -0.4547   -5.3747    0.0000 C   0  0  0  0  0  0  0  0  0  0  0  0
    0.1340   -6.1895    0.0000 C   0  0  0  0  0  0  0  0  0  0  0  0
   -0.2778   -7.1007    0.0000 Cl  0  0  0  0  0  0  0  0  0  0  0  0
    1.1345   -6.0930    0.0000 C   0  0  0  0  0  0  0  0  0  0  0  0
    1.5404   -5.1734    0.0000 C   0  0  0  0  0  0  0  0  0  0  0  0
    0.0000    0.0000    0.0000 C   0  0  0  0  0  0  0  0  0  0  0  0
   -0.5889   -0.8082    0.0000 C   0  0  0  0  0  0  0  0  0  0  0  0
   -1.1777   -1.6165    0.0000 N   0  0  0  0  0  0  0  0  0  0  0  0
    2.2648    1.2596    0.0000 C   0  0  0  0  0  0  0  0  0  0  0  0
    2.4723    2.2431    0.0000 C   0  0  0  0  0  0  0  0  0  0  0  0
    3.4238    2.5508    0.0000 C   0  0  0  0  0  0  0  0  0  0  0  0
    4.1699    1.8850    0.0000 C   0  0  0  0  0  0  0  0  0  0  0  0
    3.9624    0.9014    0.0000 C   0  0  0  0  0  0  0  0  0  0  0  0
    3.0088    0.5837    0.0000 C   0  0  0  0  0  0  0  0  0  0  0  0
  1  2  1  0
  2 20  1  0
  2  3  2  0
  3  4  1  0
  4  5  1  0
  5  6  1  0
  6  7  1  0
  7  8  2  0
  7  9  1  0
  9 10  1  0
 10 11  2  0
 10 12  2  0
 10 13  1  0
 13 19  1  0
 13 14  2  0
 14 15  1  0
 15 16  2  0
 16 17  1  0
 16 18  1  0
 18 19  2  0
  5 20  2  0
 20 21  1  0
 21 22  3  0
  4 23  1  0
 23 28  1  0
 23 24  2  0
 24 25  1  0
 25 26  2  0
 26 27  1  0
 27 28  2  0
M  END
>  <SMILES>  (660) 
Cc1nn(-c2ccccc2)c(NC(=O)NS(=O)(=O)c2ccc(Cl)cc2)c1C#N

>  <CollectionName>  (660) 
chembl

>  <LOG PLASMA PROTEIN BINDING (RAT) (% unbound)>  (660) 
0.243038048686

>  <Internal ID>  (660) 


>  <Source>  (660) 
AstraZeneca

$$$$
CHEMBL2069411
     RDKit          2D

 33 36  0  0  1  0  0  0  0  0999 V2000
    1.7379    3.0001    0.0000 O   0  0  0  0  0  0  0  0  0  0  0  0
    1.7350    2.0001    0.0000 C   0  0  0  0  0  0  0  0  0  0  0  0
    0.8675    1.5027    0.0000 C   0  0  0  0  0  0  0  0  0  0  0  0
    0.8675    0.4975    0.0000 C   0  0  0  0  0  0  0  0  0  0  0  0
    0.0000    0.0000    0.0000 C   0  0  0  0  0  0  0  0  0  0  0  0
   -0.8675    0.4975    0.0000 C   0  0  0  0  0  0  0  0  0  0  0  0
   -0.8675    1.5027    0.0000 C   0  0  0  0  0  0  0  0  0  0  0  0
    0.0000    2.0104    0.0000 N   0  0  0  0  0  0  0  0  0  0  0  0
   -1.7328   -0.0038    0.0000 C   0  0  0  0  0  0  0  0  0  0  0  0
   -1.7279   -1.0044    0.0000 C   0  0  0  0  0  0  0  0  0  0  0  0
   -2.5979   -1.5089    0.0000 C   0  0  0  0  0  0  0  0  0  0  0  0
   -3.4729   -1.0130    0.0000 C   0  0  0  0  0  0  0  0  0  0  0  0
   -3.4696   -0.0060    0.0000 C   0  0  0  0  0  0  0  0  0  0  0  0
   -4.3420    0.4912    0.0000 O   0  0  0  0  0  0  0  0  0  0  0  0
   -4.3405    1.5003    0.0000 C   0  0  0  0  0  0  0  0  0  0  0  0
   -3.4688    2.0044    0.0000 C   0  0  0  0  0  0  0  0  0  0  0  0
   -2.5984    1.4994    0.0000 C   0  0  0  0  0  0  0  0  0  0  0  0
   -2.5979    0.4980    0.0000 C   0  0  0  0  0  0  0  0  0  0  0  0
   -3.4681    3.0044    0.0000 N   0  0  0  0  0  0  0  0  0  0  0  0
   -4.3338    3.5050    0.0000 C   0  0  0  0  0  0  0  0  0  0  0  0
   -5.2001    3.0056    0.0000 O   0  0  0  0  0  0  0  0  0  0  0  0
   -4.3331    4.5050    0.0000 C   0  0  0  0  0  0  0  0  0  0  0  0
   -3.4674    5.0057    0.0000 C   0  0  0  0  0  0  0  0  0  0  0  0
   -3.4623    6.0057    0.0000 C   0  0  0  0  0  0  0  0  0  0  0  0
   -4.3318    6.5102    0.0000 C   0  0  0  0  0  0  0  0  0  0  0  0
   -4.3267    7.5102    0.0000 O   0  0  0  0  0  0  0  0  0  0  0  0
   -5.1901    8.0146    0.0000 C   0  0  0  0  0  0  0  0  0  0  0  0
   -5.1850    9.0146    0.0000 C   0  0  0  0  0  0  0  0  0  0  0  0
   -6.1850    9.0197    0.0000 F   0  0  0  0  0  0  0  0  0  0  0  0
   -4.1850    9.0095    0.0000 F   0  0  0  0  0  0  0  0  0  0  0  0
   -5.1799   10.0145    0.0000 F   0  0  0  0  0  0  0  0  0  0  0  0
   -5.2063    6.0146    0.0000 N   0  0  0  0  0  0  0  0  0  0  0  0
   -5.2025    5.0095    0.0000 C   0  0  0  0  0  0  0  0  0  0  0  0
  1  2  1  0
  2  3  1  0
  3  8  2  0
  3  4  1  0
  4  5  2  0
  5  6  1  0
  6  7  2  0
  7  8  1  0
  6  9  1  0
  9 18  1  0
  9 10  2  0
 10 11  1  0
 11 12  2  0
 12 13  1  0
 13 18  2  0
 13 14  1  0
 14 15  1  0
 15 16  1  0
 16 17  1  0
 17 18  1  0
 16 19  1  1
 19 20  1  0
 20 21  2  0
 20 22  1  0
 22 33  1  0
 22 23  2  0
 23 24  1  0
 24 25  2  0
 25 26  1  0
 26 27  1  0
 27 28  1  0
 28 29  1  0
 28 30  1  0
 28 31  1  0
 25 32  1  0
 32 33  2  0
M  END
>  <SMILES>  (661) 
O=C(N[C@@H]1COc2cccc(-c3ccc(CO)nc3)c2C1)c1ccc(OCC(F)(F)F)nc1

>  <CollectionName>  (661) 
chembl

>  <LOG PLASMA PROTEIN BINDING (RAT) (% unbound)>  (661) 
0.876217840592

>  <Internal ID>  (661) 


>  <Source>  (661) 
AstraZeneca

$$$$
CHEMBL2071498
     RDKit          2D

 23 24  0  0  1  0  0  0  0  0999 V2000
    2.6114    4.5026    0.0000 C   0  0  0  0  0  0  0  0  0  0  0  0
    3.4759    4.0001    0.0000 C   0  0  0  0  0  0  0  0  0  0  0  0
    4.3434    4.4975    0.0000 C   0  0  0  0  0  0  0  0  0  0  0  0
    3.4729    3.0001    0.0000 C   0  0  0  0  0  0  0  0  0  0  0  0
    2.6054    2.5026    0.0000 N   0  0  0  0  0  0  0  0  0  0  0  0
    2.6025    1.5026    0.0000 C   0  0  0  0  0  0  0  0  0  0  0  0
    3.4670    1.0001    0.0000 O   0  0  0  0  0  0  0  0  0  0  0  0
    1.7350    1.0052    0.0000 C   0  0  0  0  0  0  0  0  0  0  0  0
    1.7350   -0.0000    0.0000 C   0  0  0  0  0  0  0  0  0  0  0  0
    0.8675   -0.4975    0.0000 C   0  0  0  0  0  0  0  0  0  0  0  0
    0.0000    0.0000    0.0000 C   0  0  0  0  0  0  0  0  0  0  0  0
    0.0000    1.0052    0.0000 C   0  0  0  0  0  0  0  0  0  0  0  0
    0.8675    1.5129    0.0000 C   0  0  0  0  0  0  0  0  0  0  0  0
    4.3375    2.4975    0.0000 C   0  0  0  0  0  0  0  0  0  0  0  0
    4.3345    1.4975    0.0000 O   0  0  0  0  0  0  0  0  0  0  0  0
    5.2050    2.9950    0.0000 C   0  0  0  0  0  0  0  0  0  0  0  0
    6.0725    2.4872    0.0000 C   0  0  0  0  0  0  0  0  0  0  0  0
    6.9401    2.9847    0.0000 C   0  0  0  0  0  0  0  0  0  0  0  0
    6.9489    3.9846    0.0000 C   0  0  0  0  0  0  0  0  0  0  0  0
    6.0813    4.4924    0.0000 C   0  0  0  0  0  0  0  0  0  0  0  0
    5.2050    4.0001    0.0000 C   0  0  0  0  0  0  0  0  0  0  0  0
    7.8186    4.4783    0.0000 C   0  0  0  0  0  0  0  0  0  0  0  0
    8.6882    4.9719    0.0000 N   0  0  0  0  0  0  0  0  0  0  0  0
  1  2  1  0
  2  3  1  0
  2  4  1  0
  4  5  1  0
  5  6  1  0
  6  7  2  0
  6  8  1  0
  8 13  1  0
  8  9  2  0
  9 10  1  0
 10 11  2  0
 11 12  1  0
 12 13  2  0
  4 14  1  0
 14 15  2  0
 14 16  1  0
 16 21  1  0
 16 17  2  0
 17 18  1  0
 18 19  2  0
 19 20  1  0
 20 21  2  0
 19 22  1  0
 22 23  3  0
M  END
>  <SMILES>  (662) 
CC(C)C(NC(=O)c1ccccc1)C(=O)c1ccc(C#N)cc1

>  <CollectionName>  (662) 
chembl

>  <LOG PLASMA PROTEIN BINDING (RAT) (% unbound)>  (662) 
1.09272064468

>  <Internal ID>  (662) 


>  <Source>  (662) 
AstraZeneca

$$$$
CHEMBL279898
     RDKit          2D

 14 15  0  0  0  0  0  0  0  0999 V2000
    0.8646   -4.5121    0.0000 C   0  0  0  0  0  0  0  0  0  0  0  0
    0.8652   -3.5121    0.0000 C   0  0  0  0  0  0  0  0  0  0  0  0
   -0.0006   -3.0116    0.0000 C   0  0  0  0  0  0  0  0  0  0  0  0
   -0.0000   -2.0116    0.0000 N   0  0  0  0  0  0  0  0  0  0  0  0
   -0.8680   -1.5137    0.0000 C   0  0  0  0  0  0  0  0  0  0  0  0
   -1.7333   -2.0149    0.0000 O   0  0  0  0  0  0  0  0  0  0  0  0
   -0.8680   -0.5079    0.0000 N   0  0  0  0  0  0  0  0  0  0  0  0
    0.0000    0.0000    0.0000 C   0  0  0  0  0  0  0  0  0  0  0  0
    0.0000    1.0000    0.0000 O   0  0  0  0  0  0  0  0  0  0  0  0
    0.8680   -0.5079    0.0000 C   0  0  0  0  0  0  0  0  0  0  0  0
    1.8258   -0.1969    0.0000 N   0  0  0  0  0  0  0  0  0  0  0  0
    2.4178   -1.0115    0.0000 C   0  0  0  0  0  0  0  0  0  0  0  0
    1.8258   -1.8263    0.0000 N   0  0  0  0  0  0  0  0  0  0  0  0
    0.8680   -1.5150    0.0000 C   0  0  0  0  0  0  0  0  0  0  0  0
  1  2  1  0
  2  3  1  0
  3  4  1  0
  4 14  1  0
  4  5  1  0
  5  6  2  0
  5  7  1  0
  7  8  1  0
  8  9  2  0
  8 10  1  0
 10 14  2  0
 10 11  1  0
 11 12  1  0
 12 13  2  0
 13 14  1  0
M  END
>  <SMILES>  (663) 
CCCn1c(=O)[nH]c(=O)c2[nH]cnc21

>  <CollectionName>  (663) 
chembl

>  <LOG PLASMA PROTEIN BINDING (RAT) (% unbound)>  (663) 
1.32654066852

>  <Internal ID>  (663) 


>  <Source>  (663) 
AstraZeneca

$$$$
CHEMBL1164729
     RDKit          2D

 22 23  0  0  0  0  0  0  0  0999 V2000
    6.5083    4.4287    0.0000 C   0  0  0  0  0  0  0  0  0  0  0  0
    6.2947    3.4518    0.0000 C   0  0  0  0  0  0  0  0  0  0  0  0
    7.0340    2.7784    0.0000 C   0  0  0  0  0  0  0  0  0  0  0  0
    5.3419    3.1483    0.0000 C   0  0  0  0  0  0  0  0  0  0  0  0
    5.1283    2.1714    0.0000 O   0  0  0  0  0  0  0  0  0  0  0  0
    4.1754    1.8680    0.0000 C   0  0  0  0  0  0  0  0  0  0  0  0
    3.9604    0.8913    0.0000 C   0  0  0  0  0  0  0  0  0  0  0  0
    3.0089    0.5837    0.0000 C   0  0  0  0  0  0  0  0  0  0  0  0
    2.2648    1.2596    0.0000 C   0  0  0  0  0  0  0  0  0  0  0  0
    2.4723    2.2431    0.0000 C   0  0  0  0  0  0  0  0  0  0  0  0
    3.4314    2.5438    0.0000 C   0  0  0  0  0  0  0  0  0  0  0  0
    3.6464    3.5204    0.0000 C   0  0  0  0  0  0  0  0  0  0  0  0
    3.8615    4.4970    0.0000 N   0  0  0  0  0  0  0  0  0  0  0  0
    1.3133    0.9519    0.0000 C   0  0  0  0  0  0  0  0  0  0  0  0
    1.0015   -0.0000    0.0000 N   0  0  0  0  0  0  0  0  0  0  0  0
    0.0000    0.0000    0.0000 C   0  0  0  0  0  0  0  0  0  0  0  0
   -0.5889   -0.8082    0.0000 C   0  0  0  0  0  0  0  0  0  0  0  0
   -0.3065    0.9519    0.0000 C   0  0  0  0  0  0  0  0  0  0  0  0
    0.5008    1.5428    0.0000 S   0  0  0  0  0  0  0  0  0  0  0  0
   -1.2577    1.2605    0.0000 C   0  0  0  0  0  0  0  0  0  0  0  0
   -1.4660    2.2386    0.0000 O   0  0  0  0  0  0  0  0  0  0  0  0
   -2.0005    0.5910    0.0000 O   0  0  0  0  0  0  0  0  0  0  0  0
  1  2  1  0
  2  3  1  0
  2  4  1  0
  4  5  1  0
  5  6  1  0
  6 11  2  0
  6  7  1  0
  7  8  2  0
  8  9  1  0
  9 10  2  0
 10 11  1  0
 11 12  1  0
 12 13  3  0
  9 14  1  0
 14 19  1  0
 14 15  2  0
 15 16  1  0
 16 17  1  0
 16 18  2  0
 18 19  1  0
 18 20  1  0
 20 21  2  0
 20 22  1  0
M  END
>  <SMILES>  (664) 
Cc1nc(-c2ccc(OCC(C)C)c(C#N)c2)sc1C(=O)O

>  <CollectionName>  (664) 
chembl

>  <LOG PLASMA PROTEIN BINDING (RAT) (% unbound)>  (664) 
-0.283996656365

>  <Internal ID>  (664) 


>  <Source>  (664) 
AstraZeneca

$$$$
CHEMBL832
     RDKit          2D

 29 32  0  0  1  0  0  0  0  0999 V2000
   -1.7666   -2.4247    0.0000 O   0  0  0  0  0  0  0  0  0  0  0  0
   -2.1721   -1.5106    0.0000 S   0  0  0  0  0  0  0  0  0  0  0  0
   -1.5832   -0.7024    0.0000 C   0  0  0  0  0  0  0  0  0  0  0  0
   -0.5889   -0.8082    0.0000 C   0  0  0  0  0  0  0  0  0  0  0  0
    0.0000    0.0000    0.0000 C   0  0  0  0  0  0  0  0  0  0  0  0
   -0.3065    0.9519    0.0000 C   0  0  0  0  0  0  0  0  0  0  0  0
   -1.2577    1.2605    0.0000 O   0  0  0  0  0  0  0  0  0  0  0  0
    0.5008    1.5428    0.0000 N   0  0  0  0  0  0  0  0  0  0  0  0
    1.3133    0.9519    0.0000 N   0  0  0  0  0  0  0  0  0  0  0  0
    1.0015    0.0000    0.0000 C   0  0  0  0  0  0  0  0  0  0  0  0
    1.5883   -0.8097    0.0000 O   0  0  0  0  0  0  0  0  0  0  0  0
    2.2648    1.2596    0.0000 C   0  0  0  0  0  0  0  0  0  0  0  0
    2.4723    2.2431    0.0000 C   0  0  0  0  0  0  0  0  0  0  0  0
    3.4238    2.5508    0.0000 C   0  0  0  0  0  0  0  0  0  0  0  0
    4.1699    1.8850    0.0000 C   0  0  0  0  0  0  0  0  0  0  0  0
    3.9624    0.9014    0.0000 C   0  0  0  0  0  0  0  0  0  0  0  0
    3.0088    0.5837    0.0000 C   0  0  0  0  0  0  0  0  0  0  0  0
    0.4993    2.5428    0.0000 C   0  0  0  0  0  0  0  0  0  0  0  0
   -0.3735    3.0415    0.0000 C   0  0  0  0  0  0  0  0  0  0  0  0
   -0.3751    4.0415    0.0000 C   0  0  0  0  0  0  0  0  0  0  0  0
    0.4873    4.5479    0.0000 C   0  0  0  0  0  0  0  0  0  0  0  0
    1.3600    4.0492    0.0000 C   0  0  0  0  0  0  0  0  0  0  0  0
    1.3705    3.0441    0.0000 C   0  0  0  0  0  0  0  0  0  0  0  0
   -3.1665   -1.4048    0.0000 C   0  0  0  0  0  0  0  0  0  0  0  0
   -3.7560   -2.2190    0.0000 C   0  0  0  0  0  0  0  0  0  0  0  0
   -4.7504   -2.1132    0.0000 C   0  0  0  0  0  0  0  0  0  0  0  0
   -5.1613   -1.2014    0.0000 C   0  0  0  0  0  0  0  0  0  0  0  0
   -4.5718   -0.3872    0.0000 C   0  0  0  0  0  0  0  0  0  0  0  0
   -3.5714   -0.4848    0.0000 C   0  0  0  0  0  0  0  0  0  0  0  0
  1  2  1  0
  2  3  1  0
  3  4  1  0
  4  5  1  0
  5 10  1  0
  5  6  1  0
  6  7  2  0
  6  8  1  0
  8  9  1  0
  9 10  1  0
 10 11  2  0
  9 12  1  0
 12 17  1  0
 12 13  2  0
 13 14  1  0
 14 15  2  0
 15 16  1  0
 16 17  2  0
  8 18  1  0
 18 23  1  0
 18 19  2  0
 19 20  1  0
 20 21  2  0
 21 22  1  0
 22 23  2  0
  2 24  1  0
 24 29  1  0
 24 25  2  0
 25 26  1  0
 26 27  2  0
 27 28  1  0
 28 29  2  0
M  CHG  2   1  -1   2   1
M  END
>  <SMILES>  (665) 
O=C1C(CC[S+]([O-])c2ccccc2)C(=O)N(c2ccccc2)N1c1ccccc1

>  <CollectionName>  (665) 
chembl

>  <LOG PLASMA PROTEIN BINDING (RAT) (% unbound)>  (665) 
-0.638272163982

>  <Internal ID>  (665) 


>  <Source>  (665) 
AstraZeneca

$$$$
CHEMBL2021706
     RDKit          2D

 31 32  0  0  1  0  0  0  0  0999 V2000
   -0.0148    6.0052    0.0000 C   0  0  0  0  0  0  0  0  0  0  0  0
   -0.8793    5.5026    0.0000 C   0  0  0  0  0  0  0  0  0  0  0  0
   -0.8763    4.5026    0.0000 C   0  0  0  0  0  0  0  0  0  0  0  0
   -1.7409    4.0001    0.0000 C   0  0  0  0  0  0  0  0  0  0  0  0
   -1.7379    3.0001    0.0000 C   0  0  0  0  0  0  0  0  0  0  0  0
   -0.8704    2.5026    0.0000 N   0  0  0  0  0  0  0  0  0  0  0  0
   -0.8675    1.5026    0.0000 C   0  0  0  0  0  0  0  0  0  0  0  0
   -1.7320    1.0001    0.0000 O   0  0  0  0  0  0  0  0  0  0  0  0
    0.0000    1.0052    0.0000 C   0  0  0  0  0  0  0  0  0  0  0  0
    0.8675    1.5129    0.0000 N   0  0  0  0  0  0  0  0  0  0  0  0
    1.7350    1.0052    0.0000 C   0  0  0  0  0  0  0  0  0  0  0  0
    2.6025    1.5026    0.0000 Cl  0  0  0  0  0  0  0  0  0  0  0  0
    1.7350    0.0000    0.0000 C   0  0  0  0  0  0  0  0  0  0  0  0
    2.6003   -0.5013    0.0000 N   0  0  0  0  0  0  0  0  0  0  0  0
    0.8675   -0.4975    0.0000 N   0  0  0  0  0  0  0  0  0  0  0  0
    0.0000    0.0000    0.0000 C   0  0  0  0  0  0  0  0  0  0  0  0
   -0.8653   -0.5013    0.0000 N   0  0  0  0  0  0  0  0  0  0  0  0
   -2.6084    4.4975    0.0000 N   0  0  0  0  0  0  0  0  0  0  0  0
   -3.1058    3.6300    0.0000 C   0  0  0  0  0  0  0  0  0  0  0  0
   -2.1109    5.3650    0.0000 C   0  0  0  0  0  0  0  0  0  0  0  0
   -3.4759    4.9950    0.0000 C   0  0  0  0  0  0  0  0  0  0  0  0
   -4.3404    4.4924    0.0000 C   0  0  0  0  0  0  0  0  0  0  0  0
   -5.2079    4.9899    0.0000 C   0  0  0  0  0  0  0  0  0  0  0  0
   -6.0725    4.4873    0.0000 C   0  0  0  0  0  0  0  0  0  0  0  0
   -6.9407    4.9835    0.0000 C   0  0  0  0  0  0  0  0  0  0  0  0
   -7.8075    4.4847    0.0000 C   0  0  0  0  0  0  0  0  0  0  0  0
   -7.8060    3.4795    0.0000 C   0  0  0  0  0  0  0  0  0  0  0  0
   -8.6727    2.9808    0.0000 O   0  0  0  0  0  0  0  0  0  0  0  0
   -9.5380    3.4820    0.0000 C   0  0  0  0  0  0  0  0  0  0  0  0
   -6.9377    2.9731    0.0000 C   0  0  0  0  0  0  0  0  0  0  0  0
   -6.0710    3.4821    0.0000 C   0  0  0  0  0  0  0  0  0  0  0  0
  1  2  1  0
  2  3  1  0
  4  3  1  1
  4  5  1  0
  5  6  1  0
  6  7  1  0
  7  8  2  0
  7  9  1  0
  9 16  1  0
  9 10  2  0
 10 11  1  0
 11 12  1  0
 11 13  2  0
 13 14  1  0
 13 15  1  0
 15 16  2  0
 16 17  1  0
  4 18  1  0
 18 19  1  0
 18 20  1  0
 18 21  1  0
 21 22  1  0
 22 23  1  0
 23 24  1  0
 24 31  1  0
 24 25  2  0
 25 26  1  0
 26 27  2  0
 27 28  1  0
 28 29  1  0
 27 30  1  0
 30 31  2  0
M  CHG  1  18   1
M  END
>  <SMILES>  (666) 
CCC[C@@H](CNC(=O)c1nc(Cl)c(N)nc1N)[N+](C)(C)CCCc1ccc(OC)cc1

>  <CollectionName>  (666) 
chembl

>  <LOG PLASMA PROTEIN BINDING (RAT) (% unbound)>  (666) 
1.6571515019

>  <Internal ID>  (666) 


>  <Source>  (666) 
AstraZeneca

$$$$
CHEMBL1088913
     RDKit          2D

 26 29  0  0  1  0  0  0  0  0999 V2000
   -3.4594    3.0185    0.0000 N   0  0  0  0  0  0  0  0  0  0  0  0
   -2.5934    2.5185    0.0000 C   0  0  0  0  0  0  0  0  0  0  0  0
   -1.7274    3.0185    0.0000 C   0  0  0  0  0  0  0  0  0  0  0  0
   -0.8614    2.5185    0.0000 C   0  0  0  0  0  0  0  0  0  0  0  0
    0.0047    3.0185    0.0000 C   0  0  0  0  0  0  0  0  0  0  0  0
    0.8707    2.5185    0.0000 N   0  0  0  0  0  0  0  0  0  0  0  0
    1.7367    3.0185    0.0000 C   0  0  0  0  0  0  0  0  0  0  0  0
    1.7367    4.0185    0.0000 C   0  0  0  0  0  0  0  0  0  0  0  0
    2.5515    4.6105    0.0000 N   0  0  0  0  0  0  0  0  0  0  0  0
    2.2401    5.5683    0.0000 C   0  0  0  0  0  0  0  0  0  0  0  0
    2.7367    6.4364    0.0000 C   0  0  0  0  0  0  0  0  0  0  0  0
    2.2387    7.3043    0.0000 C   0  0  0  0  0  0  0  0  0  0  0  0
    1.2329    7.3043    0.0000 C   0  0  0  0  0  0  0  0  0  0  0  0
    0.7251    6.4362    0.0000 C   0  0  0  0  0  0  0  0  0  0  0  0
    1.2330    5.5683    0.0000 C   0  0  0  0  0  0  0  0  0  0  0  0
    0.9221    4.6105    0.0000 N   0  0  0  0  0  0  0  0  0  0  0  0
    0.8707    1.5185    0.0000 C   0  0  0  0  0  0  0  0  0  0  0  0
    0.0000    1.0089    0.0000 C   0  0  0  0  0  0  0  0  0  0  0  0
    0.0000    0.0000    0.0000 C   0  0  0  0  0  0  0  0  0  0  0  0
    0.8707   -0.4993    0.0000 C   0  0  0  0  0  0  0  0  0  0  0  0
    1.7371   -0.0000    0.0000 C   0  0  0  0  0  0  0  0  0  0  0  0
    2.6039   -0.5053    0.0000 C   0  0  0  0  0  0  0  0  0  0  0  0
    3.4805   -0.0073    0.0000 C   0  0  0  0  0  0  0  0  0  0  0  0
    3.4848    1.0014    0.0000 C   0  0  0  0  0  0  0  0  0  0  0  0
    2.6125    1.5125    0.0000 N   0  0  0  0  0  0  0  0  0  0  0  0
    1.7414    1.0089    0.0000 C   0  0  0  0  0  0  0  0  0  0  0  0
  1  2  1  0
  2  3  1  0
  3  4  1  0
  4  5  1  0
  5  6  1  0
  6  7  1  0
  7  8  1  0
  8 16  1  0
  8  9  2  0
  9 10  1  0
 10 15  2  0
 10 11  1  0
 11 12  2  0
 12 13  1  0
 13 14  2  0
 14 15  1  0
 15 16  1  0
  6 17  1  0
 17 26  1  0
 17 18  1  0
 18 19  1  0
 19 20  1  0
 20 21  1  0
 21 26  2  0
 21 22  1  0
 22 23  2  0
 23 24  1  0
 24 25  2  0
 25 26  1  0
M  END
>  <SMILES>  (667) 
NCCCCN(Cc1nc2ccccc2[nH]1)C1CCCc2cccnc21

>  <CollectionName>  (667) 
chembl

>  <LOG PLASMA PROTEIN BINDING (RAT) (% unbound)>  (667) 
1.56890541498

>  <Internal ID>  (667) 


>  <Source>  (667) 
AstraZeneca

$$$$
CHEMBL1412533
     RDKit          2D

 22 25  0  0  0  0  0  0  0  0999 V2000
    0.8718   -1.4993    0.0000 Cl  0  0  0  0  0  0  0  0  0  0  0  0
    0.8707   -0.4993    0.0000 C   0  0  0  0  0  0  0  0  0  0  0  0
    0.0000    0.0000    0.0000 C   0  0  0  0  0  0  0  0  0  0  0  0
    0.0000    1.0089    0.0000 C   0  0  0  0  0  0  0  0  0  0  0  0
    0.8707    1.5185    0.0000 C   0  0  0  0  0  0  0  0  0  0  0  0
    0.8707    2.5185    0.0000 O   0  0  0  0  0  0  0  0  0  0  0  0
    0.0047    3.0185    0.0000 C   0  0  0  0  0  0  0  0  0  0  0  0
    0.0047    4.0185    0.0000 C   0  0  0  0  0  0  0  0  0  0  0  0
   -0.8101    4.6105    0.0000 C   0  0  0  0  0  0  0  0  0  0  0  0
   -0.4987    5.5683    0.0000 N   0  0  0  0  0  0  0  0  0  0  0  0
   -0.9953    6.4364    0.0000 C   0  0  0  0  0  0  0  0  0  0  0  0
   -0.4973    7.3043    0.0000 C   0  0  0  0  0  0  0  0  0  0  0  0
    0.5085    7.3043    0.0000 C   0  0  0  0  0  0  0  0  0  0  0  0
    1.0163    6.4362    0.0000 C   0  0  0  0  0  0  0  0  0  0  0  0
    0.5084    5.5683    0.0000 C   0  0  0  0  0  0  0  0  0  0  0  0
    0.8193    4.6105    0.0000 N   0  0  0  0  0  0  0  0  0  0  0  0
    1.7414    1.0089    0.0000 C   0  0  0  0  0  0  0  0  0  0  0  0
    2.6125    1.5125    0.0000 N   0  0  0  0  0  0  0  0  0  0  0  0
    3.4848    1.0014    0.0000 C   0  0  0  0  0  0  0  0  0  0  0  0
    3.4805   -0.0073    0.0000 C   0  0  0  0  0  0  0  0  0  0  0  0
    2.6039   -0.5053    0.0000 C   0  0  0  0  0  0  0  0  0  0  0  0
    1.7371    0.0000    0.0000 C   0  0  0  0  0  0  0  0  0  0  0  0
  1  2  1  0
  2 22  2  0
  2  3  1  0
  3  4  2  0
  4  5  1  0
  5  6  1  0
  6  7  1  0
  7  8  1  0
  8 16  1  0
  8  9  2  0
  9 10  1  0
 10 15  1  0
 10 11  1  0
 11 12  2  0
 12 13  1  0
 13 14  2  0
 14 15  1  0
 15 16  2  0
  5 17  2  0
 17 22  1  0
 17 18  1  0
 18 19  2  0
 19 20  1  0
 20 21  2  0
 21 22  1  0
M  END
>  <SMILES>  (668) 
Clc1ccc(OCc2cn3ccccc3n2)c2ncccc12

>  <CollectionName>  (668) 
chembl

>  <LOG PLASMA PROTEIN BINDING (RAT) (% unbound)>  (668) 
-0.154901959986

>  <Internal ID>  (668) 


>  <Source>  (668) 
AstraZeneca

$$$$
CHEMBL242693
     RDKit          2D

 23 25  0  0  1  0  0  0  0  0999 V2000
    3.0070    0.5894    0.0000 C   0  0  0  0  0  0  0  0  0  0  0  0
    2.2648    1.2596    0.0000 C   0  0  0  0  0  0  0  0  0  0  0  0
    2.4741    2.2374    0.0000 O   0  0  0  0  0  0  0  0  0  0  0  0
    3.4256    2.5451    0.0000 C   0  0  0  0  0  0  0  0  0  0  0  0
    4.1696    1.8692    0.0000 C   0  0  0  0  0  0  0  0  0  0  0  0
    5.1232    2.1869    0.0000 C   0  0  0  0  0  0  0  0  0  0  0  0
    5.3307    3.1705    0.0000 C   0  0  0  0  0  0  0  0  0  0  0  0
    4.5846    3.8363    0.0000 C   0  0  0  0  0  0  0  0  0  0  0  0
    3.6331    3.5286    0.0000 C   0  0  0  0  0  0  0  0  0  0  0  0
    2.8899    4.1977    0.0000 C   0  0  0  0  0  0  0  0  0  0  0  0
    3.1017    5.1803    0.0000 C   0  0  0  0  0  0  0  0  0  0  0  0
    2.3585    5.8495    0.0000 C   0  0  0  0  0  0  0  0  0  0  0  0
    1.4057    5.5459    0.0000 C   0  0  0  0  0  0  0  0  0  0  0  0
    1.1939    4.5633    0.0000 C   0  0  0  0  0  0  0  0  0  0  0  0
    1.9349    3.8842    0.0000 C   0  0  0  0  0  0  0  0  0  0  0  0
    0.2410    4.2598    0.0000 N   0  0  0  0  0  0  0  0  0  0  0  0
   -0.4982    4.9333    0.0000 O   0  0  0  0  0  0  0  0  0  0  0  0
    0.0274    3.2829    0.0000 O   0  0  0  0  0  0  0  0  0  0  0  0
    1.3133    0.9519    0.0000 C   0  0  0  0  0  0  0  0  0  0  0  0
    0.5008    1.5428    0.0000 N   0  0  0  0  0  0  0  0  0  0  0  0
   -0.3065    0.9519    0.0000 C   0  0  0  0  0  0  0  0  0  0  0  0
    0.0000    0.0000    0.0000 C   0  0  0  0  0  0  0  0  0  0  0  0
    1.0015   -0.0000    0.0000 N   0  0  0  0  0  0  0  0  0  0  0  0
  2  1  1  6
  2  3  1  0
  3  4  1  0
  4  9  1  0
  4  5  2  0
  5  6  1  0
  6  7  2  0
  7  8  1  0
  8  9  2  0
  9 10  1  0
 10 15  1  0
 10 11  2  0
 11 12  1  0
 12 13  2  0
 13 14  1  0
 14 15  2  0
 14 16  1  0
 16 17  2  0
 16 18  1  0
  2 19  1  0
 19 23  1  0
 19 20  2  0
 20 21  1  0
 21 22  1  0
 22 23  1  0
M  CHG  2  16   1  18  -1
M  END
>  <SMILES>  (669) 
C[C@@H](Oc1ccccc1-c1cccc([N+](=O)[O-])c1)C1=NCCN1

>  <CollectionName>  (669) 
chembl

>  <LOG PLASMA PROTEIN BINDING (RAT) (% unbound)>  (669) 
1.60573589388

>  <Internal ID>  (669) 


>  <Source>  (669) 
AstraZeneca

$$$$
CHEMBL223402
     RDKit          2D

 29 32  0  0  1  0  0  0  0  0999 V2000
    8.3067    1.6058    0.0000 F   0  0  0  0  0  0  0  0  0  0  0  0
    8.0227    0.6470    0.0000 C   0  0  0  0  0  0  0  0  0  0  0  0
    8.7168   -0.0800    0.0000 C   0  0  0  0  0  0  0  0  0  0  0  0
    8.4228   -1.0412    0.0000 C   0  0  0  0  0  0  0  0  0  0  0  0
    7.4447   -1.2730    0.0000 C   0  0  0  0  0  0  0  0  0  0  0  0
    6.7606   -0.5437    0.0000 C   0  0  0  0  0  0  0  0  0  0  0  0
    7.0446    0.4152    0.0000 C   0  0  0  0  0  0  0  0  0  0  0  0
    6.3573    1.1416    0.0000 N   0  0  0  0  0  0  0  0  0  0  0  0
    5.3846    0.9095    0.0000 C   0  0  0  0  0  0  0  0  0  0  0  0
    5.0992   -0.0489    0.0000 O   0  0  0  0  0  0  0  0  0  0  0  0
    4.6973    1.6359    0.0000 N   0  0  0  0  0  0  0  0  0  0  0  0
    3.7246    1.4039    0.0000 C   0  0  0  0  0  0  0  0  0  0  0  0
    3.5069    0.4226    0.0000 N   0  0  0  0  0  0  0  0  0  0  0  0
    2.6022   -0.0243    0.0000 C   0  0  0  0  0  0  0  0  0  0  0  0
    2.6132   -1.0242    0.0000 C   0  0  0  0  0  0  0  0  0  0  0  0
    3.4907   -1.5146    0.0000 C   0  0  0  0  0  0  0  0  0  0  0  0
    3.5017   -2.5146    0.0000 C   0  0  0  0  0  0  0  0  0  0  0  0
    2.6442   -3.0292    0.0000 C   0  0  0  0  0  0  0  0  0  0  0  0
    1.7668   -2.5388    0.0000 C   0  0  0  0  0  0  0  0  0  0  0  0
    1.7468   -1.5338    0.0000 C   0  0  0  0  0  0  0  0  0  0  0  0
    1.6906    0.4013    0.0000 C   0  0  0  0  0  0  0  0  0  0  0  0
    0.9648   -0.2906    0.0000 C   0  0  0  0  0  0  0  0  0  0  0  0
    0.0000    0.0000    0.0000 C   0  0  0  0  0  0  0  0  0  0  0  0
   -0.2322    0.9784    0.0000 C   0  0  0  0  0  0  0  0  0  0  0  0
    0.5003    1.6662    0.0000 C   0  0  0  0  0  0  0  0  0  0  0  0
    1.4584    1.3796    0.0000 C   0  0  0  0  0  0  0  0  0  0  0  0
    2.0794    2.1743    0.0000 N   0  0  0  0  0  0  0  0  0  0  0  0
    3.0873    2.1814    0.0000 C   0  0  0  0  0  0  0  0  0  0  0  0
    3.5119    3.0868    0.0000 O   0  0  0  0  0  0  0  0  0  0  0  0
  1  2  1  0
  2  7  2  0
  2  3  1  0
  3  4  2  0
  4  5  1  0
  5  6  2  0
  6  7  1  0
  7  8  1  0
  8  9  1  0
  9 10  2  0
  9 11  1  0
 12 11  1  1
 12 28  1  0
 12 13  1  0
 13 14  2  0
 14 15  1  0
 15 20  1  0
 15 16  2  0
 16 17  1  0
 17 18  2  0
 18 19  1  0
 19 20  2  0
 14 21  1  0
 21 26  2  0
 21 22  1  0
 22 23  2  0
 23 24  1  0
 24 25  2  0
 25 26  1  0
 26 27  1  0
 27 28  1  0
 28 29  2  0
M  END
>  <SMILES>  (670) 
O=C(Nc1ccccc1F)N[C@H]1N=C(c2ccccc2)c2ccccc2NC1=O

>  <CollectionName>  (670) 
chembl

>  <LOG PLASMA PROTEIN BINDING (RAT) (% unbound)>  (670) 
0.43775056282

>  <Internal ID>  (670) 


>  <Source>  (670) 
AstraZeneca

$$$$
CHEMBL235789
     RDKit          2D

 28 32  0  0  0  0  0  0  0  0999 V2000
    4.3427    4.5039    0.0000 Cl  0  0  0  0  0  0  0  0  0  0  0  0
    3.4745    4.0077    0.0000 C   0  0  0  0  0  0  0  0  0  0  0  0
    3.4686    3.0077    0.0000 C   0  0  0  0  0  0  0  0  0  0  0  0
    2.6026    2.5077    0.0000 C   0  0  0  0  0  0  0  0  0  0  0  0
    1.7335    3.0129    0.0000 C   0  0  0  0  0  0  0  0  0  0  0  0
    0.8675    2.5129    0.0000 C   0  0  0  0  0  0  0  0  0  0  0  0
    0.8675    1.5129    0.0000 N   0  0  0  0  0  0  0  0  0  0  0  0
    0.0000    1.0052    0.0000 C   0  0  0  0  0  0  0  0  0  0  0  0
    0.0000    0.0000    0.0000 C   0  0  0  0  0  0  0  0  0  0  0  0
    0.8675   -0.4975    0.0000 N   0  0  0  0  0  0  0  0  0  0  0  0
    1.7350    0.0000    0.0000 C   0  0  0  0  0  0  0  0  0  0  0  0
    1.7350    1.0052    0.0000 C   0  0  0  0  0  0  0  0  0  0  0  0
    1.7306    4.0180    0.0000 C   0  0  0  0  0  0  0  0  0  0  0  0
    2.6055    4.5129    0.0000 C   0  0  0  0  0  0  0  0  0  0  0  0
    2.6114    5.5129    0.0000 C   0  0  0  0  0  0  0  0  0  0  0  0
    1.7483    6.0180    0.0000 O   0  0  0  0  0  0  0  0  0  0  0  0
    3.4803    6.0078    0.0000 N   0  0  0  0  0  0  0  0  0  0  0  0
    3.4862    7.0077    0.0000 C   0  0  0  0  0  0  0  0  0  0  0  0
    4.3552    7.5026    0.0000 C   0  0  0  0  0  0  0  0  0  0  0  0
    5.1335    6.8592    0.0000 C   0  0  0  0  0  0  0  0  0  0  0  0
    6.0345    7.4106    0.0000 C   0  0  0  0  0  0  0  0  0  0  0  0
    7.2457    7.1529    0.0000 C   0  0  0  0  0  0  0  0  0  0  0  0
    6.4415    7.9086    0.0000 C   0  0  0  0  0  0  0  0  0  0  0  0
    6.2647    8.9637    0.0000 C   0  0  0  0  0  0  0  0  0  0  0  0
    5.1198    9.1104    0.0000 C   0  0  0  0  0  0  0  0  0  0  0  0
    5.8406    8.3916    0.0000 C   0  0  0  0  0  0  0  0  0  0  0  0
    4.1899    8.5574    0.0000 C   0  0  0  0  0  0  0  0  0  0  0  0
    5.4794    7.3230    0.0000 C   0  0  0  0  0  0  0  0  0  0  0  0
  1  2  1  0
  2 14  2  0
  2  3  1  0
  3  4  2  0
  4  5  1  0
  5  6  1  0
  6  7  1  0
  7 12  1  0
  7  8  1  0
  8  9  1  0
  9 10  1  0
 10 11  1  0
 11 12  1  0
  5 13  2  0
 13 14  1  0
 14 15  1  0
 15 16  2  0
 15 17  1  0
 17 18  1  0
 18 19  1  0
 19 27  1  0
 19 28  1  0
 19 20  1  0
 20 21  1  0
 21 26  1  0
 21 22  1  0
 22 23  1  0
 23 24  1  0
 24 25  1  0
 25 26  1  0
 25 27  1  0
 23 28  1  0
M  END
>  <SMILES>  (671) 
O=C(NCC12CC3CC(CC(C3)C1)C2)c1cc(CN2CCNCC2)ccc1Cl

>  <CollectionName>  (671) 
chembl

>  <LOG PLASMA PROTEIN BINDING (RAT) (% unbound)>  (671) 
0.792391689498

>  <Internal ID>  (671) 


>  <Source>  (671) 
AstraZeneca

$$$$
CHEMBL1938681
     RDKit          2D

 34 38  0  0  0  0  0  0  0  0999 V2000
    6.1732   -1.8728    0.0000 Cl  0  0  0  0  0  0  0  0  0  0  0  0
    5.7714   -0.9570    0.0000 C   0  0  0  0  0  0  0  0  0  0  0  0
    4.7720   -0.8494    0.0000 C   0  0  0  0  0  0  0  0  0  0  0  0
    4.3702    0.0664    0.0000 C   0  0  0  0  0  0  0  0  0  0  0  0
    4.9578    0.8756    0.0000 C   0  0  0  0  0  0  0  0  0  0  0  0
    5.9572    0.7680    0.0000 C   0  0  0  0  0  0  0  0  0  0  0  0
    6.3691   -0.1488    0.0000 C   0  0  0  0  0  0  0  0  0  0  0  0
    4.5520    1.7896    0.0000 C   0  0  0  0  0  0  0  0  0  0  0  0
    3.5730    1.9957    0.0000 O   0  0  0  0  0  0  0  0  0  0  0  0
    3.4700    2.9950    0.0000 C   0  0  0  0  0  0  0  0  0  0  0  0
    4.3866    3.3989    0.0000 C   0  0  0  0  0  0  0  0  0  0  0  0
    5.0556    2.6536    0.0000 C   0  0  0  0  0  0  0  0  0  0  0  0
    2.6054    3.4976    0.0000 C   0  0  0  0  0  0  0  0  0  0  0  0
    2.6084    4.4976    0.0000 O   0  0  0  0  0  0  0  0  0  0  0  0
    1.7379    3.0001    0.0000 N   0  0  0  0  0  0  0  0  0  0  0  0
    1.7350    2.0001    0.0000 C   0  0  0  0  0  0  0  0  0  0  0  0
    0.8675    1.5027    0.0000 C   0  0  0  0  0  0  0  0  0  0  0  0
    0.8675    0.4975    0.0000 C   0  0  0  0  0  0  0  0  0  0  0  0
    0.0000    0.0000    0.0000 C   0  0  0  0  0  0  0  0  0  0  0  0
   -0.8675    0.4975    0.0000 C   0  0  0  0  0  0  0  0  0  0  0  0
   -0.8675    1.5027    0.0000 C   0  0  0  0  0  0  0  0  0  0  0  0
   -0.0000    2.0104    0.0000 N   0  0  0  0  0  0  0  0  0  0  0  0
    0.8734    3.5027    0.0000 C   0  0  0  0  0  0  0  0  0  0  0  0
    0.0029    3.0001    0.0000 C   0  0  0  0  0  0  0  0  0  0  0  0
   -0.8617    3.5026    0.0000 C   0  0  0  0  0  0  0  0  0  0  0  0
   -0.8646    4.5026    0.0000 C   0  0  0  0  0  0  0  0  0  0  0  0
    0.0059    5.0052    0.0000 C   0  0  0  0  0  0  0  0  0  0  0  0
    0.8793    4.5078    0.0000 C   0  0  0  0  0  0  0  0  0  0  0  0
   -1.7314    5.0014    0.0000 N   0  0  0  0  0  0  0  0  0  0  0  0
   -1.7388    6.0065    0.0000 C   0  0  0  0  0  0  0  0  0  0  0  0
   -2.6100    6.5078    0.0000 C   0  0  0  0  0  0  0  0  0  0  0  0
   -3.4739    6.0041    0.0000 N   0  0  0  0  0  0  0  0  0  0  0  0
   -3.4753    5.0040    0.0000 C   0  0  0  0  0  0  0  0  0  0  0  0
   -2.6041    4.5027    0.0000 C   0  0  0  0  0  0  0  0  0  0  0  0
  1  2  1  0
  2  7  2  0
  2  3  1  0
  3  4  2  0
  4  5  1  0
  5  6  2  0
  6  7  1  0
  5  8  1  0
  8 12  2  0
  8  9  1  0
  9 10  1  0
 10 11  2  0
 11 12  1  0
 10 13  1  0
 13 14  2  0
 13 15  1  0
 15 16  1  0
 16 17  1  0
 17 22  1  0
 17 18  2  0
 18 19  1  0
 19 20  2  0
 20 21  1  0
 21 22  2  0
 15 23  1  0
 23 28  1  0
 23 24  2  0
 24 25  1  0
 25 26  2  0
 26 27  1  0
 27 28  2  0
 26 29  1  0
 29 34  1  0
 29 30  1  0
 30 31  1  0
 31 32  1  0
 32 33  1  0
 33 34  1  0
M  END
>  <SMILES>  (672) 
O=C(c1ccc(-c2ccc(Cl)cc2)o1)N(Cc1ccccn1)c1ccc(N2CCNCC2)cc1

>  <CollectionName>  (672) 
chembl

>  <LOG PLASMA PROTEIN BINDING (RAT) (% unbound)>  (672) 
0.34044411484

>  <Internal ID>  (672) 


>  <Source>  (672) 
AstraZeneca

$$$$
CHEMBL1945044
     RDKit          2D

 34 37  0  0  1  0  0  0  0  0999 V2000
   -3.5124    0.0089    0.0000 C   0  0  0  0  0  0  0  0  0  0  0  0
   -3.5006    1.0088    0.0000 O   0  0  0  0  0  0  0  0  0  0  0  0
   -4.3606    1.5190    0.0000 C   0  0  0  0  0  0  0  0  0  0  0  0
   -5.2356    1.0241    0.0000 C   0  0  0  0  0  0  0  0  0  0  0  0
   -6.0957    1.5343    0.0000 C   0  0  0  0  0  0  0  0  0  0  0  0
   -6.0897    2.5343    0.0000 C   0  0  0  0  0  0  0  0  0  0  0  0
   -5.2148    3.0292    0.0000 C   0  0  0  0  0  0  0  0  0  0  0  0
   -5.2089    4.0292    0.0000 C   0  0  0  0  0  0  0  0  0  0  0  0
   -4.3399    4.5241    0.0000 N   0  0  0  0  0  0  0  0  0  0  0  0
   -4.3340    5.5240    0.0000 C   0  0  0  0  0  0  0  0  0  0  0  0
   -3.4651    6.0189    0.0000 C   0  0  0  0  0  0  0  0  0  0  0  0
   -3.4621    7.0241    0.0000 C   0  0  0  0  0  0  0  0  0  0  0  0
   -2.5931    7.5191    0.0000 C   0  0  0  0  0  0  0  0  0  0  0  0
   -1.7271    7.0190    0.0000 C   0  0  0  0  0  0  0  0  0  0  0  0
   -1.7301    6.0138    0.0000 C   0  0  0  0  0  0  0  0  0  0  0  0
   -0.8641    5.5138    0.0000 C   0  0  0  0  0  0  0  0  0  0  0  0
   -0.8641    4.5138    0.0000 C   0  0  0  0  0  0  0  0  0  0  0  0
    0.0020    4.0138    0.0000 N   0  0  0  0  0  0  0  0  0  0  0  0
    0.0020    3.0138    0.0000 C   0  0  0  0  0  0  0  0  0  0  0  0
    0.8680    2.5138    0.0000 C   0  0  0  0  0  0  0  0  0  0  0  0
    1.7340    3.0138    0.0000 O   0  0  0  0  0  0  0  0  0  0  0  0
    0.8680    1.5138    0.0000 C   0  0  0  0  0  0  0  0  0  0  0  0
    0.0000    1.0058    0.0000 C   0  0  0  0  0  0  0  0  0  0  0  0
    0.0000    0.0000    0.0000 C   0  0  0  0  0  0  0  0  0  0  0  0
    0.8680   -0.4978    0.0000 C   0  0  0  0  0  0  0  0  0  0  0  0
    0.8675   -1.4978    0.0000 O   0  0  0  0  0  0  0  0  0  0  0  0
    1.7360   -0.0012    0.0000 C   0  0  0  0  0  0  0  0  0  0  0  0
    2.6938   -0.3125    0.0000 N   0  0  0  0  0  0  0  0  0  0  0  0
    3.2858    0.5023    0.0000 C   0  0  0  0  0  0  0  0  0  0  0  0
    4.2858    0.5024    0.0000 O   0  0  0  0  0  0  0  0  0  0  0  0
    2.6938    1.3169    0.0000 S   0  0  0  0  0  0  0  0  0  0  0  0
    1.7360    1.0058    0.0000 C   0  0  0  0  0  0  0  0  0  0  0  0
   -2.5991    5.5087    0.0000 C   0  0  0  0  0  0  0  0  0  0  0  0
   -4.3458    2.5241    0.0000 C   0  0  0  0  0  0  0  0  0  0  0  0
  1  2  1  0
  2  3  1  0
  3 34  2  0
  3  4  1  0
  4  5  2  0
  5  6  1  0
  6  7  2  0
  7  8  1  0
  8  9  1  0
  9 10  1  0
 10 11  1  0
 11 33  1  0
 11 12  2  0
 12 13  1  0
 13 14  2  0
 14 15  1  0
 15 16  1  0
 16 17  1  0
 17 18  1  0
 18 19  1  0
 19 20  1  0
 20 21  1  6
 20 22  1  0
 22 32  1  0
 22 23  2  0
 23 24  1  0
 24 25  2  0
 25 26  1  0
 25 27  1  0
 27 32  2  0
 27 28  1  0
 28 29  1  0
 29 30  2  0
 29 31  1  0
 31 32  1  0
 15 33  2  0
  7 34  1  0
M  END
>  <SMILES>  (673) 
COc1cccc(CNCc2cccc(CCNC[C@H](O)c3ccc(O)c4[nH]c(=O)sc34)c2)c1

>  <CollectionName>  (673) 
chembl

>  <LOG PLASMA PROTEIN BINDING (RAT) (% unbound)>  (673) 
1.18752072084

>  <Internal ID>  (673) 


>  <Source>  (673) 
AstraZeneca

$$$$
CHEMBL1957848
     RDKit          2D

 24 27  0  0  0  0  0  0  0  0999 V2000
    2.2711   -5.6615    0.0000 Cl  0  0  0  0  0  0  0  0  0  0  0  0
    1.9678   -4.7086    0.0000 C   0  0  0  0  0  0  0  0  0  0  0  0
    0.9852   -4.4966    0.0000 C   0  0  0  0  0  0  0  0  0  0  0  0
    0.6818   -3.5437    0.0000 C   0  0  0  0  0  0  0  0  0  0  0  0
    1.3510   -2.8006    0.0000 C   0  0  0  0  0  0  0  0  0  0  0  0
    2.3336   -3.0126    0.0000 C   0  0  0  0  0  0  0  0  0  0  0  0
    3.0028   -2.2695    0.0000 C   0  0  0  0  0  0  0  0  0  0  0  0
    2.6938   -1.3184    0.0000 N   0  0  0  0  0  0  0  0  0  0  0  0
    3.2858   -0.5036    0.0000 C   0  0  0  0  0  0  0  0  0  0  0  0
    2.6938    0.3110    0.0000 C   0  0  0  0  0  0  0  0  0  0  0  0
    1.7360    0.0000    0.0000 N   0  0  0  0  0  0  0  0  0  0  0  0
    0.8680    0.5079    0.0000 C   0  0  0  0  0  0  0  0  0  0  0  0
    0.8680    1.5079    0.0000 O   0  0  0  0  0  0  0  0  0  0  0  0
    0.0000    0.0000    0.0000 C   0  0  0  0  0  0  0  0  0  0  0  0
    0.0000   -1.0058    0.0000 C   0  0  0  0  0  0  0  0  0  0  0  0
    0.8680   -1.5037    0.0000 N   0  0  0  0  0  0  0  0  0  0  0  0
    1.7360   -1.0071    0.0000 C   0  0  0  0  0  0  0  0  0  0  0  0
   -0.8653   -1.5070    0.0000 N   0  0  0  0  0  0  0  0  0  0  0  0
   -0.8610   -2.5070    0.0000 C   0  0  0  0  0  0  0  0  0  0  0  0
   -1.7308   -3.0109    0.0000 C   0  0  0  0  0  0  0  0  0  0  0  0
   -2.6050   -2.5147    0.0000 O   0  0  0  0  0  0  0  0  0  0  0  0
   -2.6004   -1.5095    0.0000 C   0  0  0  0  0  0  0  0  0  0  0  0
   -1.7306   -1.0057    0.0000 C   0  0  0  0  0  0  0  0  0  0  0  0
    2.6470   -3.9676    0.0000 C   0  0  0  0  0  0  0  0  0  0  0  0
  1  2  1  0
  2 24  2  0
  2  3  1  0
  3  4  2  0
  4  5  1  0
  5  6  2  0
  6  7  1  0
  7  8  1  0
  8 17  1  0
  8  9  1  0
  9 10  2  0
 10 11  1  0
 11 17  1  0
 11 12  1  0
 12 13  2  0
 12 14  1  0
 14 15  2  0
 15 16  1  0
 16 17  2  0
 15 18  1  0
 18 23  1  0
 18 19  1  0
 19 20  1  0
 20 21  1  0
 21 22  1  0
 22 23  1  0
  6 24  1  0
M  END
>  <SMILES>  (674) 
O=c1cc(N2CCOCC2)nc2n(Cc3cccc(Cl)c3)ccn12

>  <CollectionName>  (674) 
chembl

>  <LOG PLASMA PROTEIN BINDING (RAT) (% unbound)>  (674) 
1.03941411918

>  <Internal ID>  (674) 


>  <Source>  (674) 
AstraZeneca

$$$$
CHEMBL1963231
     RDKit          2D

 23 25  0  0  1  0  0  0  0  0999 V2000
    2.3601   -2.1029    0.0000 C   0  0  0  0  0  0  0  0  0  0  0  0
    3.1698   -1.5161    0.0000 C   0  0  0  0  0  0  0  0  0  0  0  0
    3.9795   -0.9293    0.0000 C   0  0  0  0  0  0  0  0  0  0  0  0
    3.9817    0.0724    0.0000 C   0  0  0  0  0  0  0  0  0  0  0  0
    4.9340    0.3819    0.0000 C   0  0  0  0  0  0  0  0  0  0  0  0
    5.5198   -0.4286    0.0000 C   0  0  0  0  0  0  0  0  0  0  0  0
    4.9347   -1.2399    0.0000 C   0  0  0  0  0  0  0  0  0  0  0  0
    2.5830   -0.7064    0.0000 C   0  0  0  0  0  0  0  0  0  0  0  0
    2.9908    0.2067    0.0000 O   0  0  0  0  0  0  0  0  0  0  0  0
    1.5883   -0.8097    0.0000 O   0  0  0  0  0  0  0  0  0  0  0  0
    1.0015   -0.0000    0.0000 C   0  0  0  0  0  0  0  0  0  0  0  0
    0.0000    0.0000    0.0000 C   0  0  0  0  0  0  0  0  0  0  0  0
   -0.3065    0.9519    0.0000 C   0  0  0  0  0  0  0  0  0  0  0  0
    0.5008    1.5428    0.0000 N   0  0  0  0  0  0  0  0  0  0  0  0
   -0.1700    2.2845    0.0000 C   0  0  0  0  0  0  0  0  0  0  0  0
    1.1693    2.2865    0.0000 C   0  0  0  0  0  0  0  0  0  0  0  0
    1.3133    0.9519    0.0000 C   0  0  0  0  0  0  0  0  0  0  0  0
    3.7566   -2.3258    0.0000 C   0  0  0  0  0  0  0  0  0  0  0  0
    4.7561   -2.2190    0.0000 C   0  0  0  0  0  0  0  0  0  0  0  0
    5.3430   -3.0287    0.0000 C   0  0  0  0  0  0  0  0  0  0  0  0
    4.9405   -3.9441    0.0000 C   0  0  0  0  0  0  0  0  0  0  0  0
    3.9410   -4.0510    0.0000 C   0  0  0  0  0  0  0  0  0  0  0  0
    3.3440   -3.2424    0.0000 C   0  0  0  0  0  0  0  0  0  0  0  0
  1  2  1  0
  2  3  1  0
  3  7  1  0
  3  4  1  0
  4  5  1  0
  5  6  1  0
  6  7  1  0
  2  8  1  0
  8  9  2  0
  8 10  1  0
 11 10  1  6
 11 17  1  0
 11 12  1  0
 12 13  1  0
 13 14  1  0
 14 15  1  0
 14 16  1  0
 14 17  1  0
  2 18  1  0
 18 23  1  0
 18 19  2  0
 19 20  1  0
 20 21  2  0
 21 22  1  0
 22 23  2  0
M  CHG  1  14   1
M  END
>  <SMILES>  (675) 
CC(C(=O)O[C@@H]1CC[N+](C)(C)C1)(c1ccccc1)C1CCCC1

>  <CollectionName>  (675) 
chembl

>  <LOG PLASMA PROTEIN BINDING (RAT) (% unbound)>  (675) 
1.47567118832

>  <Internal ID>  (675) 


>  <Source>  (675) 
AstraZeneca

$$$$
CHEMBL708
     RDKit          2D

 28 32  0  0  0  0  0  0  0  0999 V2000
    5.2239   -5.2876    0.0000 Cl  0  0  0  0  0  0  0  0  0  0  0  0
    4.5558   -6.0317    0.0000 C   0  0  0  0  0  0  0  0  0  0  0  0
    4.8707   -6.9868    0.0000 C   0  0  0  0  0  0  0  0  0  0  0  0
    4.1922   -7.7292    0.0000 C   0  0  0  0  0  0  0  0  0  0  0  0
    4.2958   -8.7309    0.0000 N   0  0  0  0  0  0  0  0  0  0  0  0
    3.3752   -9.1392    0.0000 C   0  0  0  0  0  0  0  0  0  0  0  0
    3.1658  -10.1170    0.0000 O   0  0  0  0  0  0  0  0  0  0  0  0
    2.7025   -8.3896    0.0000 C   0  0  0  0  0  0  0  0  0  0  0  0
    3.2075   -7.5183    0.0000 C   0  0  0  0  0  0  0  0  0  0  0  0
    2.9037   -6.5655    0.0000 C   0  0  0  0  0  0  0  0  0  0  0  0
    3.5723   -5.8210    0.0000 C   0  0  0  0  0  0  0  0  0  0  0  0
    3.2634   -4.8699    0.0000 C   0  0  0  0  0  0  0  0  0  0  0  0
    3.9326   -4.1269    0.0000 C   0  0  0  0  0  0  0  0  0  0  0  0
    3.6237   -3.1758    0.0000 N   0  0  0  0  0  0  0  0  0  0  0  0
    2.6450   -2.9706    0.0000 C   0  0  0  0  0  0  0  0  0  0  0  0
    2.3344   -2.0145    0.0000 C   0  0  0  0  0  0  0  0  0  0  0  0
    3.0027   -1.2637    0.0000 N   0  0  0  0  0  0  0  0  0  0  0  0
    3.9846   -1.4786    0.0000 C   0  0  0  0  0  0  0  0  0  0  0  0
    4.2951   -2.4346    0.0000 C   0  0  0  0  0  0  0  0  0  0  0  0
    2.6938   -0.3126    0.0000 C   0  0  0  0  0  0  0  0  0  0  0  0
    3.2858    0.5021    0.0000 N   0  0  0  0  0  0  0  0  0  0  0  0
    2.6939    1.3169    0.0000 S   0  0  0  0  0  0  0  0  0  0  0  0
    1.7360    1.0058    0.0000 C   0  0  0  0  0  0  0  0  0  0  0  0
    0.8680    1.5138    0.0000 C   0  0  0  0  0  0  0  0  0  0  0  0
    0.0000    1.0058    0.0000 C   0  0  0  0  0  0  0  0  0  0  0  0
    0.0000    0.0000    0.0000 C   0  0  0  0  0  0  0  0  0  0  0  0
    0.8680   -0.4978    0.0000 C   0  0  0  0  0  0  0  0  0  0  0  0
    1.7360   -0.0012    0.0000 C   0  0  0  0  0  0  0  0  0  0  0  0
  1  2  1  0
  2 11  2  0
  2  3  1  0
  3  4  2  0
  4  9  1  0
  4  5  1  0
  5  6  1  0
  6  7  2  0
  6  8  1  0
  8  9  1  0
  9 10  2  0
 10 11  1  0
 11 12  1  0
 12 13  1  0
 13 14  1  0
 14 19  1  0
 14 15  1  0
 15 16  1  0
 16 17  1  0
 17 18  1  0
 18 19  1  0
 17 20  1  0
 20 28  1  0
 20 21  2  0
 21 22  1  0
 22 23  1  0
 23 28  2  0
 23 24  1  0
 24 25  2  0
 25 26  1  0
 26 27  2  0
 27 28  1  0
M  END
>  <SMILES>  (676) 
O=C1Cc2cc(CCN3CCN(c4nsc5ccccc45)CC3)c(Cl)cc2N1

>  <CollectionName>  (676) 
chembl

>  <LOG PLASMA PROTEIN BINDING (RAT) (% unbound)>  (676) 
-0.52287874528

>  <Internal ID>  (676) 


>  <Source>  (676) 
AstraZeneca

$$$$
CHEMBL210884
     RDKit          2D

 23 25  0  0  0  0  0  0  0  0999 V2000
   -3.4612   -5.0173    0.0000 C   0  0  0  0  0  0  0  0  0  0  0  0
   -2.5958   -4.5161    0.0000 O   0  0  0  0  0  0  0  0  0  0  0  0
   -2.5972   -3.5161    0.0000 C   0  0  0  0  0  0  0  0  0  0  0  0
   -1.7319   -3.0149    0.0000 C   0  0  0  0  0  0  0  0  0  0  0  0
   -1.7333   -2.0149    0.0000 O   0  0  0  0  0  0  0  0  0  0  0  0
   -0.8680   -1.5137    0.0000 C   0  0  0  0  0  0  0  0  0  0  0  0
   -0.8680   -0.5079    0.0000 N   0  0  0  0  0  0  0  0  0  0  0  0
    0.0000    0.0000    0.0000 C   0  0  0  0  0  0  0  0  0  0  0  0
    0.0000    1.0000    0.0000 N   0  0  0  0  0  0  0  0  0  0  0  0
    0.8680   -0.5079    0.0000 C   0  0  0  0  0  0  0  0  0  0  0  0
    1.8258   -0.1969    0.0000 N   0  0  0  0  0  0  0  0  0  0  0  0
    2.4178   -1.0115    0.0000 C   0  0  0  0  0  0  0  0  0  0  0  0
    3.4178   -1.0114    0.0000 O   0  0  0  0  0  0  0  0  0  0  0  0
    1.8258   -1.8263    0.0000 N   0  0  0  0  0  0  0  0  0  0  0  0
    2.1348   -2.7774    0.0000 C   0  0  0  0  0  0  0  0  0  0  0  0
    1.4656   -3.5205    0.0000 C   0  0  0  0  0  0  0  0  0  0  0  0
    1.7790   -4.4756    0.0000 C   0  0  0  0  0  0  0  0  0  0  0  0
    1.1098   -5.2187    0.0000 C   0  0  0  0  0  0  0  0  0  0  0  0
    0.1305   -5.0165    0.0000 C   0  0  0  0  0  0  0  0  0  0  0  0
   -0.1829   -4.0614    0.0000 C   0  0  0  0  0  0  0  0  0  0  0  0
    0.4831   -3.3086    0.0000 C   0  0  0  0  0  0  0  0  0  0  0  0
    0.8680   -1.5150    0.0000 C   0  0  0  0  0  0  0  0  0  0  0  0
   -0.0000   -2.0116    0.0000 N   0  0  0  0  0  0  0  0  0  0  0  0
  1  2  1  0
  2  3  1  0
  3  4  1  0
  4  5  1  0
  5  6  1  0
  6 23  2  0
  6  7  1  0
  7  8  2  0
  8  9  1  0
  8 10  1  0
 10 22  2  0
 10 11  1  0
 11 12  1  0
 12 13  2  0
 12 14  1  0
 14 15  1  0
 15 16  1  0
 16 21  1  0
 16 17  2  0
 17 18  1  0
 18 19  2  0
 19 20  1  0
 20 21  2  0
 14 22  1  0
 22 23  1  0
M  END
>  <SMILES>  (677) 
COCCOc1nc(N)c2[nH]c(=O)n(Cc3ccccc3)c2n1

>  <CollectionName>  (677) 
chembl

>  <LOG PLASMA PROTEIN BINDING (RAT) (% unbound)>  (677) 
1.57518784493

>  <Internal ID>  (677) 


>  <Source>  (677) 
AstraZeneca

$$$$
CHEMBL222333
     RDKit          2D

 28 31  0  0  0  0  0  0  0  0999 V2000
    7.2857    1.2287    0.0000 C   0  0  0  0  0  0  0  0  0  0  0  0
    6.2857    1.2286    0.0000 C   0  0  0  0  0  0  0  0  0  0  0  0
    5.7857    0.3626    0.0000 N   0  0  0  0  0  0  0  0  0  0  0  0
    4.7857    0.3625    0.0000 C   0  0  0  0  0  0  0  0  0  0  0  0
    4.2857    1.2285    0.0000 O   0  0  0  0  0  0  0  0  0  0  0  0
    4.2858   -0.5035    0.0000 N   0  0  0  0  0  0  0  0  0  0  0  0
    3.2858   -0.5036    0.0000 C   0  0  0  0  0  0  0  0  0  0  0  0
    2.6938   -1.3184    0.0000 N   0  0  0  0  0  0  0  0  0  0  0  0
    1.7360   -1.0071    0.0000 C   0  0  0  0  0  0  0  0  0  0  0  0
    0.8680   -1.5037    0.0000 C   0  0  0  0  0  0  0  0  0  0  0  0
    0.0000   -1.0058    0.0000 C   0  0  0  0  0  0  0  0  0  0  0  0
    0.0000    0.0000    0.0000 C   0  0  0  0  0  0  0  0  0  0  0  0
    0.8680    0.5079    0.0000 C   0  0  0  0  0  0  0  0  0  0  0  0
    0.8680    1.5079    0.0000 C   0  0  0  0  0  0  0  0  0  0  0  0
    1.7400    2.0079    0.0000 N   0  0  0  0  0  0  0  0  0  0  0  0
    1.7311    3.0130    0.0000 C   0  0  0  0  0  0  0  0  0  0  0  0
    0.8591    3.5130    0.0000 C   0  0  0  0  0  0  0  0  0  0  0  0
   -0.0041    3.0080    0.0000 C   0  0  0  0  0  0  0  0  0  0  0  0
   -0.0040    2.0079    0.0000 C   0  0  0  0  0  0  0  0  0  0  0  0
   -0.8693    1.5066    0.0000 F   0  0  0  0  0  0  0  0  0  0  0  0
    1.7360   -0.0000    0.0000 C   0  0  0  0  0  0  0  0  0  0  0  0
    2.6938    0.3110    0.0000 N   0  0  0  0  0  0  0  0  0  0  0  0
   -0.8653   -1.5070    0.0000 C   0  0  0  0  0  0  0  0  0  0  0  0
   -0.8654   -2.5070    0.0000 C   0  0  0  0  0  0  0  0  0  0  0  0
   -1.7285   -3.0120    0.0000 C   0  0  0  0  0  0  0  0  0  0  0  0
   -2.6005   -2.5119    0.0000 C   0  0  0  0  0  0  0  0  0  0  0  0
   -2.6093   -1.5068    0.0000 N   0  0  0  0  0  0  0  0  0  0  0  0
   -1.7373   -1.0069    0.0000 C   0  0  0  0  0  0  0  0  0  0  0  0
  1  2  1  0
  2  3  1  0
  3  4  1  0
  4  5  2  0
  4  6  1  0
  6  7  1  0
  7 22  1  0
  7  8  2  0
  8  9  1  0
  9 21  2  0
  9 10  1  0
 10 11  2  0
 11 12  1  0
 12 13  2  0
 13 14  1  0
 14 19  1  0
 14 15  2  0
 15 16  1  0
 16 17  2  0
 17 18  1  0
 18 19  2  0
 19 20  1  0
 13 21  1  0
 21 22  1  0
 11 23  1  0
 23 28  1  0
 23 24  2  0
 24 25  1  0
 25 26  2  0
 26 27  1  0
 27 28  2  0
M  END
>  <SMILES>  (678) 
CCNC(=O)Nc1nc2cc(-c3cccnc3)cc(-c3ncccc3F)c2[nH]1

>  <CollectionName>  (678) 
chembl

>  <LOG PLASMA PROTEIN BINDING (RAT) (% unbound)>  (678) 
0.447158031342

>  <Internal ID>  (678) 


>  <Source>  (678) 
AstraZeneca

$$$$
CHEMBL222659
     RDKit          2D

 37 43  0  0  0  0  0  0  0  0999 V2000
   -0.8704    2.5033    0.0000 O   0  0  0  0  0  0  0  0  0  0  0  0
   -0.8675    1.5033    0.0000 C   0  0  0  0  0  0  0  0  0  0  0  0
   -1.7320    1.0008    0.0000 N   0  0  0  0  0  0  0  0  0  0  0  0
   -2.5995    1.4982    0.0000 C   0  0  0  0  0  0  0  0  0  0  0  0
   -3.4671    0.9905    0.0000 C   0  0  0  0  0  0  0  0  0  0  0  0
   -4.3346    1.4880    0.0000 C   0  0  0  0  0  0  0  0  0  0  0  0
   -4.3434    2.4880    0.0000 C   0  0  0  0  0  0  0  0  0  0  0  0
   -3.4758    2.9957    0.0000 C   0  0  0  0  0  0  0  0  0  0  0  0
   -2.5995    2.5034    0.0000 N   0  0  0  0  0  0  0  0  0  0  0  0
    0.0000    1.0058    0.0000 C   0  0  0  0  0  0  0  0  0  0  0  0
    0.0000    0.0000    0.0000 C   0  0  0  0  0  0  0  0  0  0  0  0
    0.8680   -0.4979    0.0000 C   0  0  0  0  0  0  0  0  0  0  0  0
    1.7360   -0.0013    0.0000 C   0  0  0  0  0  0  0  0  0  0  0  0
    2.6938   -0.3126    0.0000 N   0  0  0  0  0  0  0  0  0  0  0  0
    3.2858    0.5022    0.0000 C   0  0  0  0  0  0  0  0  0  0  0  0
    2.6938    1.3168    0.0000 N   0  0  0  0  0  0  0  0  0  0  0  0
    1.7360    1.0058    0.0000 C   0  0  0  0  0  0  0  0  0  0  0  0
    0.8680    1.5137    0.0000 C   0  0  0  0  0  0  0  0  0  0  0  0
    4.2858    0.5023    0.0000 C   0  0  0  0  0  0  0  0  0  0  0  0
    4.7871   -0.3630    0.0000 C   0  0  0  0  0  0  0  0  0  0  0  0
    5.7871   -0.3673    0.0000 C   0  0  0  0  0  0  0  0  0  0  0  0
    6.2910    0.5025    0.0000 C   0  0  0  0  0  0  0  0  0  0  0  0
    7.2909    0.4982    0.0000 N   0  0  0  0  0  0  0  0  0  0  0  0
    7.7947    1.3620    0.0000 C   0  0  0  0  0  0  0  0  0  0  0  0
    7.2985    2.2302    0.0000 O   0  0  0  0  0  0  0  0  0  0  0  0
    8.7947    1.3577    0.0000 C   0  0  0  0  0  0  0  0  0  0  0  0
    9.1485    0.4118    0.0000 C   0  0  0  0  0  0  0  0  0  0  0  0
   10.2045    0.4405    0.0000 C   0  0  0  0  0  0  0  0  0  0  0  0
   11.1258   -0.3869    0.0000 C   0  0  0  0  0  0  0  0  0  0  0  0
   10.8056    0.6693    0.0000 C   0  0  0  0  0  0  0  0  0  0  0  0
   11.1784    1.6720    0.0000 C   0  0  0  0  0  0  0  0  0  0  0  0
   10.2592    2.3700    0.0000 C   0  0  0  0  0  0  0  0  0  0  0  0
   10.5256    1.3876    0.0000 C   0  0  0  0  0  0  0  0  0  0  0  0
    9.1774    2.3544    0.0000 C   0  0  0  0  0  0  0  0  0  0  0  0
    9.6796    0.6414    0.0000 C   0  0  0  0  0  0  0  0  0  0  0  0
    5.7947    1.3766    0.0000 C   0  0  0  0  0  0  0  0  0  0  0  0
    4.7896    1.3721    0.0000 C   0  0  0  0  0  0  0  0  0  0  0  0
  1  2  2  0
  2  3  1  0
  3  4  1  0
  4  9  1  0
  4  5  2  0
  5  6  1  0
  6  7  2  0
  7  8  1  0
  8  9  2  0
  2 10  1  0
 10 18  1  0
 10 11  2  0
 11 12  1  0
 12 13  2  0
 13 17  1  0
 13 14  1  0
 14 15  1  0
 15 16  2  0
 16 17  1  0
 17 18  2  0
 15 19  1  0
 19 37  1  0
 19 20  2  0
 20 21  1  0
 21 22  2  0
 22 23  1  0
 23 24  1  0
 24 25  2  0
 24 26  1  0
 26 34  1  0
 26 35  1  0
 26 27  1  0
 27 28  1  0
 28 33  1  0
 28 29  1  0
 29 30  1  0
 30 31  1  0
 31 32  1  0
 32 33  1  0
 32 34  1  0
 30 35  1  0
 22 36  1  0
 36 37  2  0
M  END
>  <SMILES>  (679) 
O=C(Nc1ccccn1)c1ccc2[nH]c(-c3ccc(NC(=O)C45CC6CC(CC(C6)C4)C5)cc3)nc2c1

>  <CollectionName>  (679) 
chembl

>  <LOG PLASMA PROTEIN BINDING (RAT) (% unbound)>  (679) 
-0.52287874528

>  <Internal ID>  (679) 


>  <Source>  (679) 
AstraZeneca

$$$$
CHEMBL570015
     RDKit          2D

 37 40  0  0  0  0  0  0  0  0999 V2000
   -0.0339   -4.9855    0.0000 C   0  0  0  0  0  0  0  0  0  0  0  0
    0.8378   -4.4955    0.0000 O   0  0  0  0  0  0  0  0  0  0  0  0
    0.8492   -3.4956    0.0000 C   0  0  0  0  0  0  0  0  0  0  0  0
   -0.0170   -2.9855    0.0000 C   0  0  0  0  0  0  0  0  0  0  0  0
   -0.0055   -1.9856    0.0000 C   0  0  0  0  0  0  0  0  0  0  0  0
    0.8633   -1.4904    0.0000 C   0  0  0  0  0  0  0  0  0  0  0  0
    1.7295   -2.0004    0.0000 C   0  0  0  0  0  0  0  0  0  0  0  0
    2.5983   -1.5053    0.0000 N   0  0  0  0  0  0  0  0  0  0  0  0
    2.6039   -0.5053    0.0000 C   0  0  0  0  0  0  0  0  0  0  0  0
    3.4805   -0.0073    0.0000 C   0  0  0  0  0  0  0  0  0  0  0  0
    3.4848    1.0014    0.0000 C   0  0  0  0  0  0  0  0  0  0  0  0
    2.6125    1.5125    0.0000 N   0  0  0  0  0  0  0  0  0  0  0  0
    1.7414    1.0089    0.0000 C   0  0  0  0  0  0  0  0  0  0  0  0
    0.8707    1.5185    0.0000 C   0  0  0  0  0  0  0  0  0  0  0  0
    0.8707    2.5185    0.0000 C   0  0  0  0  0  0  0  0  0  0  0  0
    0.0000    1.0089    0.0000 C   0  0  0  0  0  0  0  0  0  0  0  0
    0.0000    0.0000    0.0000 C   0  0  0  0  0  0  0  0  0  0  0  0
    0.8707   -0.4993    0.0000 C   0  0  0  0  0  0  0  0  0  0  0  0
    1.7371    0.0000    0.0000 C   0  0  0  0  0  0  0  0  0  0  0  0
   -1.5143   -0.8772    0.0000 S   0  0  0  0  0  0  0  0  0  0  0  0
   -2.0155   -0.0119    0.0000 O   0  0  0  0  0  0  0  0  0  0  0  0
   -1.0130   -1.7425    0.0000 O   0  0  0  0  0  0  0  0  0  0  0  0
   -2.3796   -1.3785    0.0000 C   0  0  0  0  0  0  0  0  0  0  0  0
   -2.3751   -2.3837    0.0000 C   0  0  0  0  0  0  0  0  0  0  0  0
   -3.2404   -2.8850    0.0000 C   0  0  0  0  0  0  0  0  0  0  0  0
   -4.1101   -2.3913    0.0000 C   0  0  0  0  0  0  0  0  0  0  0  0
   -4.1145   -1.3862    0.0000 C   0  0  0  0  0  0  0  0  0  0  0  0
   -3.2493   -0.8746    0.0000 C   0  0  0  0  0  0  0  0  0  0  0  0
   -4.9842   -0.8926    0.0000 C   0  0  0  0  0  0  0  0  0  0  0  0
   -4.9916    0.1074    0.0000 O   0  0  0  0  0  0  0  0  0  0  0  0
   -5.8465   -1.3989    0.0000 N   0  0  0  0  0  0  0  0  0  0  0  0
   -5.8392   -2.3989    0.0000 C   0  0  0  0  0  0  0  0  0  0  0  0
   -6.7162   -0.9053    0.0000 C   0  0  0  0  0  0  0  0  0  0  0  0
    4.3437   -0.5122    0.0000 C   0  0  0  0  0  0  0  0  0  0  0  0
    4.3381   -1.5121    0.0000 O   0  0  0  0  0  0  0  0  0  0  0  0
    5.2125   -0.0170    0.0000 N   0  0  0  0  0  0  0  0  0  0  0  0
    1.7269   -3.0056    0.0000 C   0  0  0  0  0  0  0  0  0  0  0  0
  1  2  1  0
  2  3  1  0
  3 37  2  0
  3  4  1  0
  4  5  2  0
  5  6  1  0
  6  7  2  0
  7  8  1  0
  8  9  1  0
  9 19  1  0
  9 10  2  0
 10 11  1  0
 11 12  2  0
 12 13  1  0
 13 19  2  0
 13 14  1  0
 14 15  1  0
 14 16  2  0
 16 17  1  0
 17 18  2  0
 18 19  1  0
 17 20  1  0
 20 21  2  0
 20 22  2  0
 20 23  1  0
 23 28  1  0
 23 24  2  0
 24 25  1  0
 25 26  2  0
 26 27  1  0
 27 28  2  0
 27 29  1  0
 29 30  2  0
 29 31  1  0
 31 32  1  0
 31 33  1  0
 10 34  1  0
 34 35  2  0
 34 36  1  0
  7 37  1  0
M  END
>  <SMILES>  (680) 
COc1cccc(Nc2c(C(N)=O)cnc3c(C)cc(S(=O)(=O)c4cccc(C(=O)N(C)C)c4)cc23)c1

>  <CollectionName>  (680) 
chembl

>  <LOG PLASMA PROTEIN BINDING (RAT) (% unbound)>  (680) 
0.380211241712

>  <Internal ID>  (680) 


>  <Source>  (680) 
AstraZeneca

$$$$
CHEMBL1387923
     RDKit          2D

 22 24  0  0  0  0  0  0  0  0999 V2000
    1.5423   -7.1170    0.0000 Cl  0  0  0  0  0  0  0  0  0  0  0  0
    0.5483   -7.0084    0.0000 C   0  0  0  0  0  0  0  0  0  0  0  0
   -0.0435   -7.8210    0.0000 C   0  0  0  0  0  0  0  0  0  0  0  0
   -1.0376   -7.7124    0.0000 C   0  0  0  0  0  0  0  0  0  0  0  0
   -1.4460   -6.7995    0.0000 C   0  0  0  0  0  0  0  0  0  0  0  0
   -0.8542   -5.9870    0.0000 C   0  0  0  0  0  0  0  0  0  0  0  0
   -1.2626   -5.0742    0.0000 N   0  0  0  0  0  0  0  0  0  0  0  0
   -0.6763   -4.2641    0.0000 C   0  0  0  0  0  0  0  0  0  0  0  0
    0.3184   -4.3668    0.0000 O   0  0  0  0  0  0  0  0  0  0  0  0
   -1.0847   -3.3513    0.0000 N   0  0  0  0  0  0  0  0  0  0  0  0
   -0.4984   -2.5412    0.0000 C   0  0  0  0  0  0  0  0  0  0  0  0
    0.5015   -2.5424    0.0000 N   0  0  0  0  0  0  0  0  0  0  0  0
    0.8097   -1.5895    0.0000 N   0  0  0  0  0  0  0  0  0  0  0  0
    0.0000   -1.0000    0.0000 C   0  0  0  0  0  0  0  0  0  0  0  0
   -0.8121   -1.5913    0.0000 S   0  0  0  0  0  0  0  0  0  0  0  0
    0.0000    0.0000    0.0000 C   0  0  0  0  0  0  0  0  0  0  0  0
   -0.8675    0.4975    0.0000 C   0  0  0  0  0  0  0  0  0  0  0  0
   -0.8675    1.5027    0.0000 C   0  0  0  0  0  0  0  0  0  0  0  0
   -0.0000    2.0104    0.0000 N   0  0  0  0  0  0  0  0  0  0  0  0
    0.8675    1.5027    0.0000 C   0  0  0  0  0  0  0  0  0  0  0  0
    0.8675    0.4975    0.0000 C   0  0  0  0  0  0  0  0  0  0  0  0
    0.1459   -6.0873    0.0000 C   0  0  0  0  0  0  0  0  0  0  0  0
  1  2  1  0
  2 22  2  0
  2  3  1  0
  3  4  2  0
  4  5  1  0
  5  6  2  0
  6  7  1  0
  7  8  1  0
  8  9  2  0
  8 10  1  0
 10 11  1  0
 11 15  1  0
 11 12  2  0
 12 13  1  0
 13 14  2  0
 14 15  1  0
 14 16  1  0
 16 21  1  0
 16 17  2  0
 17 18  1  0
 18 19  2  0
 19 20  1  0
 20 21  2  0
  6 22  1  0
M  END
>  <SMILES>  (681) 
O=C(Nc1cccc(Cl)c1)Nc1nnc(-c2ccncc2)s1

>  <CollectionName>  (681) 
chembl

>  <LOG PLASMA PROTEIN BINDING (RAT) (% unbound)>  (681) 
-0.337242168318

>  <Internal ID>  (681) 


>  <Source>  (681) 
AstraZeneca

$$$$
CHEMBL1916082
     RDKit          2D

 30 32  0  0  0  0  0  0  0  0999 V2000
   -1.3972   -4.8591    0.0000 C   0  0  0  0  0  0  0  0  0  0  0  0
   -0.8083   -4.0508    0.0000 C   0  0  0  0  0  0  0  0  0  0  0  0
   -1.2138   -3.1367    0.0000 C   0  0  0  0  0  0  0  0  0  0  0  0
   -2.2082   -3.0309    0.0000 C   0  0  0  0  0  0  0  0  0  0  0  0
   -2.7971   -3.8391    0.0000 C   0  0  0  0  0  0  0  0  0  0  0  0
   -0.6250   -2.3285    0.0000 N   0  0  0  0  0  0  0  0  0  0  0  0
   -1.0305   -1.4144    0.0000 C   0  0  0  0  0  0  0  0  0  0  0  0
   -2.0249   -1.3086    0.0000 O   0  0  0  0  0  0  0  0  0  0  0  0
    0.0000    0.0000    0.0000 C   0  0  0  0  0  0  0  0  0  0  0  0
    1.0015    0.0000    0.0000 C   0  0  0  0  0  0  0  0  0  0  0  0
    1.3133    0.9519    0.0000 N   0  0  0  0  0  0  0  0  0  0  0  0
    0.5008    1.5428    0.0000 N   0  0  0  0  0  0  0  0  0  0  0  0
   -0.3065    0.9519    0.0000 C   0  0  0  0  0  0  0  0  0  0  0  0
   -1.9711    1.4920    0.0000 N   0  0  0  0  0  0  0  0  0  0  0  0
   -2.7139    0.8225    0.0000 S   0  0  0  0  0  0  0  0  0  0  0  0
   -3.3834    1.5654    0.0000 O   0  0  0  0  0  0  0  0  0  0  0  0
   -2.0445    0.0796    0.0000 O   0  0  0  0  0  0  0  0  0  0  0  0
   -3.4568    0.1530    0.0000 C   0  0  0  0  0  0  0  0  0  0  0  0
   -3.2445   -0.8295    0.0000 C   0  0  0  0  0  0  0  0  0  0  0  0
   -3.9873   -1.4990    0.0000 C   0  0  0  0  0  0  0  0  0  0  0  0
   -4.9403   -1.1959    0.0000 C   0  0  0  0  0  0  0  0  0  0  0  0
   -5.6802   -1.8687    0.0000 C   0  0  0  0  0  0  0  0  0  0  0  0
   -5.1526   -0.2134    0.0000 C   0  0  0  0  0  0  0  0  0  0  0  0
   -4.4120    0.4661    0.0000 C   0  0  0  0  0  0  0  0  0  0  0  0
    0.4993    2.5428    0.0000 C   0  0  0  0  0  0  0  0  0  0  0  0
   -0.3735    3.0415    0.0000 C   0  0  0  0  0  0  0  0  0  0  0  0
   -0.3751    4.0415    0.0000 C   0  0  0  0  0  0  0  0  0  0  0  0
    0.4873    4.5479    0.0000 C   0  0  0  0  0  0  0  0  0  0  0  0
    1.3600    4.0492    0.0000 C   0  0  0  0  0  0  0  0  0  0  0  0
    1.3705    3.0441    0.0000 C   0  0  0  0  0  0  0  0  0  0  0  0
  1  2  1  0
  2  3  1  0
  3  4  1  0
  4  5  1  0
  3  6  1  0
  6  7  1  0
  7  8  2  0
  7  9  1  0
  9 13  2  0
  9 10  1  0
 10 11  2  0
 11 12  1  0
 12 13  1  0
 13 14  1  0
 14 15  1  0
 15 16  2  0
 15 17  2  0
 15 18  1  0
 18 24  1  0
 18 19  2  0
 19 20  1  0
 20 21  2  0
 21 22  1  0
 21 23  1  0
 23 24  2  0
 12 25  1  0
 25 30  1  0
 25 26  2  0
 26 27  1  0
 27 28  2  0
 28 29  1  0
 29 30  2  0
M  END
>  <SMILES>  (682) 
CCC(CC)NC(=O)c1cnn(-c2ccccc2)c1NS(=O)(=O)c1ccc(C)cc1

>  <CollectionName>  (682) 
chembl

>  <LOG PLASMA PROTEIN BINDING (RAT) (% unbound)>  (682) 
0.36921585741

>  <Internal ID>  (682) 


>  <Source>  (682) 
AstraZeneca

$$$$
CHEMBL1916266
     RDKit          2D

 30 32  0  0  0  0  0  0  0  0999 V2000
    8.2351    3.5283    0.0000 C   0  0  0  0  0  0  0  0  0  0  0  0
    7.2412    3.6386    0.0000 C   0  0  0  0  0  0  0  0  0  0  0  0
    6.6487    2.8330    0.0000 C   0  0  0  0  0  0  0  0  0  0  0  0
    7.0501    1.9171    0.0000 C   0  0  0  0  0  0  0  0  0  0  0  0
    8.0440    1.8068    0.0000 C   0  0  0  0  0  0  0  0  0  0  0  0
    5.6548    2.9433    0.0000 N   0  0  0  0  0  0  0  0  0  0  0  0
    5.0623    2.1377    0.0000 C   0  0  0  0  0  0  0  0  0  0  0  0
    5.4637    1.2218    0.0000 O   0  0  0  0  0  0  0  0  0  0  0  0
    3.3230    2.3307    0.0000 C   0  0  0  0  0  0  0  0  0  0  0  0
    2.8261    3.2003    0.0000 C   0  0  0  0  0  0  0  0  0  0  0  0
    1.8450    2.9988    0.0000 N   0  0  0  0  0  0  0  0  0  0  0  0
    1.7350    2.0001    0.0000 N   0  0  0  0  0  0  0  0  0  0  0  0
    2.6486    1.5924    0.0000 C   0  0  0  0  0  0  0  0  0  0  0  0
    3.0055   -0.1209    0.0000 N   0  0  0  0  0  0  0  0  0  0  0  0
    3.9553   -0.4337    0.0000 S   0  0  0  0  0  0  0  0  0  0  0  0
    3.6424   -1.3835    0.0000 O   0  0  0  0  0  0  0  0  0  0  0  0
    4.2681    0.5161    0.0000 O   0  0  0  0  0  0  0  0  0  0  0  0
    4.9051   -0.7466    0.0000 C   0  0  0  0  0  0  0  0  0  0  0  0
    5.6528   -0.0748    0.0000 C   0  0  0  0  0  0  0  0  0  0  0  0
    6.6027   -0.3876    0.0000 C   0  0  0  0  0  0  0  0  0  0  0  0
    6.8124   -1.3654    0.0000 C   0  0  0  0  0  0  0  0  0  0  0  0
    7.7635   -1.6741    0.0000 C   0  0  0  0  0  0  0  0  0  0  0  0
    6.0646   -2.0372    0.0000 C   0  0  0  0  0  0  0  0  0  0  0  0
    5.1072   -1.7312    0.0000 C   0  0  0  0  0  0  0  0  0  0  0  0
    0.8675    1.5027    0.0000 C   0  0  0  0  0  0  0  0  0  0  0  0
    0.8675    0.4975    0.0000 C   0  0  0  0  0  0  0  0  0  0  0  0
    0.0000    0.0000    0.0000 C   0  0  0  0  0  0  0  0  0  0  0  0
   -0.8675    0.4975    0.0000 C   0  0  0  0  0  0  0  0  0  0  0  0
   -0.8675    1.5027    0.0000 C   0  0  0  0  0  0  0  0  0  0  0  0
   -0.0000    2.0104    0.0000 N   0  0  0  0  0  0  0  0  0  0  0  0
  1  2  1  0
  2  3  1  0
  3  4  1  0
  4  5  1  0
  3  6  1  0
  6  7  1  0
  7  8  2  0
  7  9  1  0
  9 13  2  0
  9 10  1  0
 10 11  2  0
 11 12  1  0
 12 13  1  0
 13 14  1  0
 14 15  1  0
 15 16  2  0
 15 17  2  0
 15 18  1  0
 18 24  1  0
 18 19  2  0
 19 20  1  0
 20 21  2  0
 21 22  1  0
 21 23  1  0
 23 24  2  0
 12 25  1  0
 25 30  1  0
 25 26  2  0
 26 27  1  0
 27 28  2  0
 28 29  1  0
 29 30  2  0
M  END
>  <SMILES>  (683) 
CCC(CC)NC(=O)c1cnn(-c2ccccn2)c1NS(=O)(=O)c1ccc(C)cc1

>  <CollectionName>  (683) 
chembl

>  <LOG PLASMA PROTEIN BINDING (RAT) (% unbound)>  (683) 
0.698100545623

>  <Internal ID>  (683) 


>  <Source>  (683) 
AstraZeneca

$$$$
CHEMBL1916272
     RDKit          2D

 31 33  0  0  0  0  0  0  0  0999 V2000
   -0.9555   -4.2529    0.0000 C   0  0  0  0  0  0  0  0  0  0  0  0
   -0.3667   -3.4446    0.0000 C   0  0  0  0  0  0  0  0  0  0  0  0
   -0.7722   -2.5306    0.0000 C   0  0  0  0  0  0  0  0  0  0  0  0
   -1.7666   -2.4247    0.0000 C   0  0  0  0  0  0  0  0  0  0  0  0
   -2.1721   -1.5106    0.0000 C   0  0  0  0  0  0  0  0  0  0  0  0
   -0.1833   -1.7223    0.0000 N   0  0  0  0  0  0  0  0  0  0  0  0
   -0.5889   -0.8082    0.0000 C   0  0  0  0  0  0  0  0  0  0  0  0
   -1.5832   -0.7024    0.0000 O   0  0  0  0  0  0  0  0  0  0  0  0
    0.0000    0.0000    0.0000 C   0  0  0  0  0  0  0  0  0  0  0  0
   -0.3065    0.9519    0.0000 C   0  0  0  0  0  0  0  0  0  0  0  0
   -1.2577    1.2605    0.0000 C   0  0  0  0  0  0  0  0  0  0  0  0
    0.5008    1.5428    0.0000 N   0  0  0  0  0  0  0  0  0  0  0  0
    1.3133    0.9519    0.0000 N   0  0  0  0  0  0  0  0  0  0  0  0
    1.0015   -0.0000    0.0000 C   0  0  0  0  0  0  0  0  0  0  0  0
    1.5883   -0.8097    0.0000 N   0  0  0  0  0  0  0  0  0  0  0  0
    2.5830   -0.7064    0.0000 S   0  0  0  0  0  0  0  0  0  0  0  0
    2.4796    0.2883    0.0000 O   0  0  0  0  0  0  0  0  0  0  0  0
    3.5776   -0.6030    0.0000 O   0  0  0  0  0  0  0  0  0  0  0  0
    2.6863   -1.7010    0.0000 C   0  0  0  0  0  0  0  0  0  0  0  0
    3.6053   -2.1083    0.0000 C   0  0  0  0  0  0  0  0  0  0  0  0
    3.7087   -3.1029    0.0000 C   0  0  0  0  0  0  0  0  0  0  0  0
    2.9024   -3.6945    0.0000 C   0  0  0  0  0  0  0  0  0  0  0  0
    3.0101   -4.6887    0.0000 C   0  0  0  0  0  0  0  0  0  0  0  0
    1.9834   -3.2873    0.0000 C   0  0  0  0  0  0  0  0  0  0  0  0
    1.8707   -2.2885    0.0000 C   0  0  0  0  0  0  0  0  0  0  0  0
    2.9784    1.4903    0.0000 C   0  0  0  0  0  0  0  0  0  0  0  0
    3.1859    2.4739    0.0000 C   0  0  0  0  0  0  0  0  0  0  0  0
    4.1374    2.7816    0.0000 C   0  0  0  0  0  0  0  0  0  0  0  0
    4.8835    2.1157    0.0000 C   0  0  0  0  0  0  0  0  0  0  0  0
    4.6761    1.1322    0.0000 C   0  0  0  0  0  0  0  0  0  0  0  0
    3.7224    0.8145    0.0000 C   0  0  0  0  0  0  0  0  0  0  0  0
  1  2  1  0
  2  3  1  0
  3  4  1  0
  4  5  1  0
  3  6  1  0
  6  7  1  0
  7  8  2  0
  7  9  1  0
  9 14  2  0
  9 10  1  0
 10 11  1  0
 10 12  2  0
 12 13  1  0
 13 14  1  0
 14 15  1  0
 15 16  1  0
 16 17  2  0
 16 18  2  0
 16 19  1  0
 19 25  1  0
 19 20  2  0
 20 21  1  0
 21 22  2  0
 22 23  1  0
 22 24  1  0
 24 25  2  0
 13 26  1  0
 26 31  1  0
 26 27  2  0
 27 28  1  0
 28 29  2  0
 29 30  1  0
 30 31  2  0
M  END
>  <SMILES>  (684) 
CCC(CC)NC(=O)c1c(C)nn(-c2ccccc2)c1NS(=O)(=O)c1ccc(C)cc1

>  <CollectionName>  (684) 
chembl

>  <LOG PLASMA PROTEIN BINDING (RAT) (% unbound)>  (684) 
0.47712125472

>  <Internal ID>  (684) 


>  <Source>  (684) 
AstraZeneca

$$$$
CHEMBL1916278
     RDKit          2D

 32 35  0  0  0  0  0  0  0  0999 V2000
    3.0101   -4.6887    0.0000 C   0  0  0  0  0  0  0  0  0  0  0  0
    2.9024   -3.6945    0.0000 C   0  0  0  0  0  0  0  0  0  0  0  0
    3.7087   -3.1029    0.0000 C   0  0  0  0  0  0  0  0  0  0  0  0
    3.6053   -2.1083    0.0000 C   0  0  0  0  0  0  0  0  0  0  0  0
    2.6863   -1.7010    0.0000 C   0  0  0  0  0  0  0  0  0  0  0  0
    1.8707   -2.2885    0.0000 C   0  0  0  0  0  0  0  0  0  0  0  0
    1.9834   -3.2873    0.0000 C   0  0  0  0  0  0  0  0  0  0  0  0
    2.5830   -0.7064    0.0000 S   0  0  0  0  0  0  0  0  0  0  0  0
    2.4796    0.2883    0.0000 O   0  0  0  0  0  0  0  0  0  0  0  0
    3.5776   -0.6030    0.0000 O   0  0  0  0  0  0  0  0  0  0  0  0
    1.5883   -0.8097    0.0000 N   0  0  0  0  0  0  0  0  0  0  0  0
    1.0015   -0.0000    0.0000 C   0  0  0  0  0  0  0  0  0  0  0  0
    0.0000    0.0000    0.0000 C   0  0  0  0  0  0  0  0  0  0  0  0
   -0.5889   -0.8082    0.0000 C   0  0  0  0  0  0  0  0  0  0  0  0
   -1.5832   -0.7024    0.0000 O   0  0  0  0  0  0  0  0  0  0  0  0
   -0.1833   -1.7223    0.0000 N   0  0  0  0  0  0  0  0  0  0  0  0
   -0.7722   -2.5306    0.0000 C   0  0  0  0  0  0  0  0  0  0  0  0
   -0.3640   -3.4435    0.0000 C   0  0  0  0  0  0  0  0  0  0  0  0
   -0.9559   -4.2559    0.0000 C   0  0  0  0  0  0  0  0  0  0  0  0
   -1.9560   -4.1554    0.0000 O   0  0  0  0  0  0  0  0  0  0  0  0
   -2.3582   -3.2343    0.0000 C   0  0  0  0  0  0  0  0  0  0  0  0
   -1.7663   -2.4218    0.0000 C   0  0  0  0  0  0  0  0  0  0  0  0
   -0.3065    0.9519    0.0000 C   0  0  0  0  0  0  0  0  0  0  0  0
   -1.2577    1.2605    0.0000 C   0  0  0  0  0  0  0  0  0  0  0  0
    0.5008    1.5428    0.0000 N   0  0  0  0  0  0  0  0  0  0  0  0
    1.3133    0.9519    0.0000 N   0  0  0  0  0  0  0  0  0  0  0  0
    2.9784    1.4903    0.0000 C   0  0  0  0  0  0  0  0  0  0  0  0
    3.1859    2.4739    0.0000 C   0  0  0  0  0  0  0  0  0  0  0  0
    4.1374    2.7816    0.0000 C   0  0  0  0  0  0  0  0  0  0  0  0
    4.8835    2.1157    0.0000 C   0  0  0  0  0  0  0  0  0  0  0  0
    4.6761    1.1322    0.0000 C   0  0  0  0  0  0  0  0  0  0  0  0
    3.7224    0.8145    0.0000 C   0  0  0  0  0  0  0  0  0  0  0  0
  1  2  1  0
  2  7  2  0
  2  3  1  0
  3  4  2  0
  4  5  1  0
  5  6  2  0
  6  7  1  0
  5  8  1  0
  8  9  2  0
  8 10  2  0
  8 11  1  0
 11 12  1  0
 12 26  1  0
 12 13  2  0
 13 14  1  0
 14 15  2  0
 14 16  1  0
 16 17  1  0
 17 22  1  0
 17 18  1  0
 18 19  1  0
 19 20  1  0
 20 21  1  0
 21 22  1  0
 13 23  1  0
 23 24  1  0
 23 25  2  0
 25 26  1  0
 26 27  1  0
 27 32  1  0
 27 28  2  0
 28 29  1  0
 29 30  2  0
 30 31  1  0
 31 32  2  0
M  END
>  <SMILES>  (685) 
Cc1ccc(S(=O)(=O)Nc2c(C(=O)NC3CCOCC3)c(C)nn2-c2ccccc2)cc1

>  <CollectionName>  (685) 
chembl

>  <LOG PLASMA PROTEIN BINDING (RAT) (% unbound)>  (685) 
0.949390006645

>  <Internal ID>  (685) 


>  <Source>  (685) 
AstraZeneca

$$$$
CHEMBL1916286
     RDKit          2D

 31 33  0  0  1  0  0  0  0  0999 V2000
   -2.2082   -3.0309    0.0000 C   0  0  0  0  0  0  0  0  0  0  0  0
   -2.6137   -2.1168    0.0000 C   0  0  0  0  0  0  0  0  0  0  0  0
   -2.0249   -1.3086    0.0000 N   0  0  0  0  0  0  0  0  0  0  0  0
   -1.0305   -1.4144    0.0000 C   0  0  0  0  0  0  0  0  0  0  0  0
   -0.6250   -2.3285    0.0000 O   0  0  0  0  0  0  0  0  0  0  0  0
    0.0000    0.0000    0.0000 C   0  0  0  0  0  0  0  0  0  0  0  0
   -0.3065    0.9519    0.0000 C   0  0  0  0  0  0  0  0  0  0  0  0
   -1.2577    1.2605    0.0000 C   0  0  0  0  0  0  0  0  0  0  0  0
    0.5008    1.5428    0.0000 N   0  0  0  0  0  0  0  0  0  0  0  0
    1.3133    0.9519    0.0000 N   0  0  0  0  0  0  0  0  0  0  0  0
    1.0015   -0.0000    0.0000 C   0  0  0  0  0  0  0  0  0  0  0  0
    2.0284   -1.4170    0.0000 N   0  0  0  0  0  0  0  0  0  0  0  0
    1.6206   -2.3301    0.0000 S   0  0  0  0  0  0  0  0  0  0  0  0
    2.5337   -2.7379    0.0000 O   0  0  0  0  0  0  0  0  0  0  0  0
    0.7076   -1.9222    0.0000 O   0  0  0  0  0  0  0  0  0  0  0  0
    1.2128   -3.2431    0.0000 C   0  0  0  0  0  0  0  0  0  0  0  0
    0.2127   -3.3441    0.0000 C   0  0  0  0  0  0  0  0  0  0  0  0
   -0.1952   -4.2571    0.0000 C   0  0  0  0  0  0  0  0  0  0  0  0
    0.3869   -5.0703    0.0000 C   0  0  0  0  0  0  0  0  0  0  0  0
    1.3870   -4.9694    0.0000 C   0  0  0  0  0  0  0  0  0  0  0  0
    1.8050   -4.0553    0.0000 C   0  0  0  0  0  0  0  0  0  0  0  0
    2.2648    1.2596    0.0000 C   0  0  0  0  0  0  0  0  0  0  0  0
    2.4723    2.2431    0.0000 C   0  0  0  0  0  0  0  0  0  0  0  0
    3.4238    2.5508    0.0000 C   0  0  0  0  0  0  0  0  0  0  0  0
    4.1699    1.8850    0.0000 C   0  0  0  0  0  0  0  0  0  0  0  0
    3.9624    0.9014    0.0000 C   0  0  0  0  0  0  0  0  0  0  0  0
    3.0088    0.5837    0.0000 C   0  0  0  0  0  0  0  0  0  0  0  0
   -3.6081   -2.0110    0.0000 C   0  0  0  0  0  0  0  0  0  0  0  0
   -4.6025   -1.9051    0.0000 C   0  0  0  0  0  0  0  0  0  0  0  0
   -3.5023   -1.0166    0.0000 C   0  0  0  0  0  0  0  0  0  0  0  0
   -3.7140   -3.0053    0.0000 C   0  0  0  0  0  0  0  0  0  0  0  0
  2  1  1  1
  2  3  1  0
  3  4  1  0
  4  5  2  0
  4  6  1  0
  6 11  2  0
  6  7  1  0
  7  8  1  0
  7  9  2  0
  9 10  1  0
 10 11  1  0
 11 12  1  0
 12 13  1  0
 13 14  2  0
 13 15  2  0
 13 16  1  0
 16 21  1  0
 16 17  1  0
 17 18  1  0
 18 19  1  0
 19 20  1  0
 20 21  1  0
 10 22  1  0
 22 27  1  0
 22 23  2  0
 23 24  1  0
 24 25  2  0
 25 26  1  0
 26 27  2  0
  2 28  1  0
 28 29  1  0
 28 30  1  0
 28 31  1  0
M  END
>  <SMILES>  (686) 
Cc1nn(-c2ccccc2)c(NS(=O)(=O)C2CCCCC2)c1C(=O)N[C@@H](C)C(C)(C)C

>  <CollectionName>  (686) 
chembl

>  <LOG PLASMA PROTEIN BINDING (RAT) (% unbound)>  (686) 
0.212187604404

>  <Internal ID>  (686) 


>  <Source>  (686) 
AstraZeneca

$$$$
CHEMBL1916289
     RDKit          2D

 36 38  0  0  1  0  0  0  0  0999 V2000
   -2.2082   -3.0309    0.0000 C   0  0  0  0  0  0  0  0  0  0  0  0
   -2.6137   -2.1168    0.0000 C   0  0  0  0  0  0  0  0  0  0  0  0
   -2.0249   -1.3086    0.0000 N   0  0  0  0  0  0  0  0  0  0  0  0
   -1.0305   -1.4144    0.0000 C   0  0  0  0  0  0  0  0  0  0  0  0
   -0.6250   -2.3285    0.0000 O   0  0  0  0  0  0  0  0  0  0  0  0
    0.0000    0.0000    0.0000 C   0  0  0  0  0  0  0  0  0  0  0  0
   -0.3065    0.9519    0.0000 C   0  0  0  0  0  0  0  0  0  0  0  0
   -1.2577    1.2605    0.0000 C   0  0  0  0  0  0  0  0  0  0  0  0
    0.5008    1.5428    0.0000 N   0  0  0  0  0  0  0  0  0  0  0  0
    1.3133    0.9519    0.0000 N   0  0  0  0  0  0  0  0  0  0  0  0
    1.0015   -0.0000    0.0000 C   0  0  0  0  0  0  0  0  0  0  0  0
    2.0284   -1.4170    0.0000 N   0  0  0  0  0  0  0  0  0  0  0  0
    1.6206   -2.3301    0.0000 S   0  0  0  0  0  0  0  0  0  0  0  0
    2.5337   -2.7379    0.0000 O   0  0  0  0  0  0  0  0  0  0  0  0
    0.7076   -1.9222    0.0000 O   0  0  0  0  0  0  0  0  0  0  0  0
    1.2128   -3.2431    0.0000 C   0  0  0  0  0  0  0  0  0  0  0  0
    0.2127   -3.3441    0.0000 C   0  0  0  0  0  0  0  0  0  0  0  0
   -0.1952   -4.2571    0.0000 C   0  0  0  0  0  0  0  0  0  0  0  0
    0.3869   -5.0703    0.0000 C   0  0  0  0  0  0  0  0  0  0  0  0
    1.3870   -4.9694    0.0000 C   0  0  0  0  0  0  0  0  0  0  0  0
    1.8050   -4.0553    0.0000 C   0  0  0  0  0  0  0  0  0  0  0  0
   -0.0250   -5.9815    0.0000 C   0  0  0  0  0  0  0  0  0  0  0  0
   -0.9362   -5.5697    0.0000 F   0  0  0  0  0  0  0  0  0  0  0  0
    0.8863   -6.3934    0.0000 F   0  0  0  0  0  0  0  0  0  0  0  0
   -0.4368   -6.8928    0.0000 F   0  0  0  0  0  0  0  0  0  0  0  0
    2.2648    1.2596    0.0000 C   0  0  0  0  0  0  0  0  0  0  0  0
    3.0080    0.5904    0.0000 C   0  0  0  0  0  0  0  0  0  0  0  0
    3.9608    0.8940    0.0000 C   0  0  0  0  0  0  0  0  0  0  0  0
    4.1727    1.8766    0.0000 C   0  0  0  0  0  0  0  0  0  0  0  0
    5.1255    2.1800    0.0000 F   0  0  0  0  0  0  0  0  0  0  0  0
    3.4316    2.5557    0.0000 C   0  0  0  0  0  0  0  0  0  0  0  0
    2.4766    2.2422    0.0000 C   0  0  0  0  0  0  0  0  0  0  0  0
   -3.6081   -2.0110    0.0000 C   0  0  0  0  0  0  0  0  0  0  0  0
   -4.6025   -1.9051    0.0000 C   0  0  0  0  0  0  0  0  0  0  0  0
   -3.5023   -1.0166    0.0000 C   0  0  0  0  0  0  0  0  0  0  0  0
   -3.7140   -3.0053    0.0000 C   0  0  0  0  0  0  0  0  0  0  0  0
  2  1  1  1
  2  3  1  0
  3  4  1  0
  4  5  2  0
  4  6  1  0
  6 11  2  0
  6  7  1  0
  7  8  1  0
  7  9  2  0
  9 10  1  0
 10 11  1  0
 11 12  1  0
 12 13  1  0
 13 14  2  0
 13 15  2  0
 13 16  1  0
 16 21  1  0
 16 17  2  0
 17 18  1  0
 18 19  2  0
 19 20  1  0
 20 21  2  0
 19 22  1  0
 22 23  1  0
 22 24  1  0
 22 25  1  0
 10 26  1  0
 26 32  1  0
 26 27  2  0
 27 28  1  0
 28 29  2  0
 29 30  1  0
 29 31  1  0
 31 32  2  0
  2 33  1  0
 33 34  1  0
 33 35  1  0
 33 36  1  0
M  END
>  <SMILES>  (687) 
Cc1nn(-c2ccc(F)cc2)c(NS(=O)(=O)c2ccc(C(F)(F)F)cc2)c1C(=O)N[C@@H](C)C(C)(C)C

>  <CollectionName>  (687) 
chembl

>  <LOG PLASMA PROTEIN BINDING (RAT) (% unbound)>  (687) 
0.466867620354

>  <Internal ID>  (687) 


>  <Source>  (687) 
AstraZeneca

$$$$
CHEMBL1934416
     RDKit          2D

 31 32  0  0  1  0  0  0  0  0999 V2000
    4.1678    1.8749    0.0000 C   0  0  0  0  0  0  0  0  0  0  0  0
    3.9585    0.8970    0.0000 O   0  0  0  0  0  0  0  0  0  0  0  0
    3.0070    0.5894    0.0000 C   0  0  0  0  0  0  0  0  0  0  0  0
    2.2648    1.2596    0.0000 C   0  0  0  0  0  0  0  0  0  0  0  0
    2.4741    2.2374    0.0000 C   0  0  0  0  0  0  0  0  0  0  0  0
    1.3133    0.9519    0.0000 N   0  0  0  0  0  0  0  0  0  0  0  0
    0.5008    1.5428    0.0000 N   0  0  0  0  0  0  0  0  0  0  0  0
   -0.3065    0.9519    0.0000 C   0  0  0  0  0  0  0  0  0  0  0  0
   -1.2577    1.2605    0.0000 C   0  0  0  0  0  0  0  0  0  0  0  0
    0.0000    0.0000    0.0000 C   0  0  0  0  0  0  0  0  0  0  0  0
   -1.0305   -1.4144    0.0000 C   0  0  0  0  0  0  0  0  0  0  0  0
   -0.6250   -2.3285    0.0000 O   0  0  0  0  0  0  0  0  0  0  0  0
   -2.0249   -1.3086    0.0000 N   0  0  0  0  0  0  0  0  0  0  0  0
   -2.6137   -2.1168    0.0000 C   0  0  0  0  0  0  0  0  0  0  0  0
   -2.2082   -3.0309    0.0000 C   0  0  0  0  0  0  0  0  0  0  0  0
   -3.6081   -2.0110    0.0000 C   0  0  0  0  0  0  0  0  0  0  0  0
   -4.6025   -1.9051    0.0000 C   0  0  0  0  0  0  0  0  0  0  0  0
   -3.5023   -1.0166    0.0000 C   0  0  0  0  0  0  0  0  0  0  0  0
   -3.7140   -3.0053    0.0000 C   0  0  0  0  0  0  0  0  0  0  0  0
    1.0015   -0.0000    0.0000 C   0  0  0  0  0  0  0  0  0  0  0  0
    2.0284   -1.4170    0.0000 N   0  0  0  0  0  0  0  0  0  0  0  0
    1.6206   -2.3301    0.0000 S   0  0  0  0  0  0  0  0  0  0  0  0
    2.5337   -2.7379    0.0000 O   0  0  0  0  0  0  0  0  0  0  0  0
    0.7076   -1.9222    0.0000 O   0  0  0  0  0  0  0  0  0  0  0  0
    1.2128   -3.2431    0.0000 C   0  0  0  0  0  0  0  0  0  0  0  0
    0.2127   -3.3441    0.0000 C   0  0  0  0  0  0  0  0  0  0  0  0
   -0.1952   -4.2571    0.0000 C   0  0  0  0  0  0  0  0  0  0  0  0
    0.3869   -5.0703    0.0000 C   0  0  0  0  0  0  0  0  0  0  0  0
   -0.0250   -5.9815    0.0000 C   0  0  0  0  0  0  0  0  0  0  0  0
    1.3870   -4.9694    0.0000 C   0  0  0  0  0  0  0  0  0  0  0  0
    1.8050   -4.0553    0.0000 C   0  0  0  0  0  0  0  0  0  0  0  0
  1  2  1  0
  2  3  1  0
  3  4  1  0
  4  5  1  0
  4  6  1  0
  6 20  1  0
  6  7  1  0
  7  8  2  0
  8  9  1  0
  8 10  1  0
 10 11  1  0
 11 12  2  0
 11 13  1  0
 13 14  1  0
 14 15  1  1
 14 16  1  0
 16 17  1  0
 16 18  1  0
 16 19  1  0
 10 20  2  0
 20 21  1  0
 21 22  1  0
 22 23  2  0
 22 24  2  0
 22 25  1  0
 25 31  1  0
 25 26  2  0
 26 27  1  0
 27 28  2  0
 28 29  1  0
 28 30  1  0
 30 31  2  0
M  END
>  <SMILES>  (688) 
COCC(C)n1nc(C)c(C(=O)N[C@@H](C)C(C)(C)C)c1NS(=O)(=O)c1ccc(C)cc1

>  <CollectionName>  (688) 
chembl

>  <LOG PLASMA PROTEIN BINDING (RAT) (% unbound)>  (688) 
1.14457420761

>  <Internal ID>  (688) 


>  <Source>  (688) 
AstraZeneca

$$$$
CHEMBL1934417
     RDKit          2D

 32 33  0  0  1  0  0  0  0  0999 V2000
    5.3000    4.0613    0.0000 C   0  0  0  0  0  0  0  0  0  0  0  0
    4.3485    3.7537    0.0000 O   0  0  0  0  0  0  0  0  0  0  0  0
    4.1392    2.7758    0.0000 C   0  0  0  0  0  0  0  0  0  0  0  0
    3.1877    2.4682    0.0000 C   0  0  0  0  0  0  0  0  0  0  0  0
    2.9784    1.4903    0.0000 C   0  0  0  0  0  0  0  0  0  0  0  0
    3.7206    0.8201    0.0000 C   0  0  0  0  0  0  0  0  0  0  0  0
    1.3133    0.9519    0.0000 N   0  0  0  0  0  0  0  0  0  0  0  0
    0.5008    1.5428    0.0000 N   0  0  0  0  0  0  0  0  0  0  0  0
   -0.3065    0.9519    0.0000 C   0  0  0  0  0  0  0  0  0  0  0  0
   -1.2577    1.2605    0.0000 C   0  0  0  0  0  0  0  0  0  0  0  0
    0.0000    0.0000    0.0000 C   0  0  0  0  0  0  0  0  0  0  0  0
   -0.5889   -0.8082    0.0000 C   0  0  0  0  0  0  0  0  0  0  0  0
   -0.1833   -1.7223    0.0000 O   0  0  0  0  0  0  0  0  0  0  0  0
   -1.5832   -0.7024    0.0000 N   0  0  0  0  0  0  0  0  0  0  0  0
   -2.1721   -1.5106    0.0000 C   0  0  0  0  0  0  0  0  0  0  0  0
   -1.7666   -2.4247    0.0000 C   0  0  0  0  0  0  0  0  0  0  0  0
   -3.1665   -1.4048    0.0000 C   0  0  0  0  0  0  0  0  0  0  0  0
   -4.1609   -1.2989    0.0000 C   0  0  0  0  0  0  0  0  0  0  0  0
   -3.0606   -0.4104    0.0000 C   0  0  0  0  0  0  0  0  0  0  0  0
   -3.2723   -2.3992    0.0000 C   0  0  0  0  0  0  0  0  0  0  0  0
    1.0015   -0.0000    0.0000 C   0  0  0  0  0  0  0  0  0  0  0  0
    2.0284   -1.4170    0.0000 N   0  0  0  0  0  0  0  0  0  0  0  0
    3.0231   -1.3137    0.0000 S   0  0  0  0  0  0  0  0  0  0  0  0
    3.1264   -2.3083    0.0000 O   0  0  0  0  0  0  0  0  0  0  0  0
    2.9197   -0.3190    0.0000 O   0  0  0  0  0  0  0  0  0  0  0  0
    4.0177   -1.2103    0.0000 C   0  0  0  0  0  0  0  0  0  0  0  0
    4.4250   -0.2913    0.0000 C   0  0  0  0  0  0  0  0  0  0  0  0
    5.4196   -0.1879    0.0000 C   0  0  0  0  0  0  0  0  0  0  0  0
    6.0112   -0.9942    0.0000 C   0  0  0  0  0  0  0  0  0  0  0  0
    7.0054   -0.8865    0.0000 C   0  0  0  0  0  0  0  0  0  0  0  0
    5.6040   -1.9132    0.0000 C   0  0  0  0  0  0  0  0  0  0  0  0
    4.6052   -2.0259    0.0000 C   0  0  0  0  0  0  0  0  0  0  0  0
  1  2  1  0
  2  3  1  0
  3  4  1  0
  4  5  1  0
  5  6  1  0
  5  7  1  0
  7 21  1  0
  7  8  1  0
  8  9  2  0
  9 10  1  0
  9 11  1  0
 11 12  1  0
 12 13  2  0
 12 14  1  0
 14 15  1  0
 15 16  1  1
 15 17  1  0
 17 18  1  0
 17 19  1  0
 17 20  1  0
 11 21  2  0
 21 22  1  0
 22 23  1  0
 23 24  2  0
 23 25  2  0
 23 26  1  0
 26 32  1  0
 26 27  2  0
 27 28  1  0
 28 29  2  0
 29 30  1  0
 29 31  1  0
 31 32  2  0
M  END
>  <SMILES>  (689) 
COCCC(C)n1nc(C)c(C(=O)N[C@@H](C)C(C)(C)C)c1NS(=O)(=O)c1ccc(C)cc1

>  <CollectionName>  (689) 
chembl

>  <LOG PLASMA PROTEIN BINDING (RAT) (% unbound)>  (689) 
1.44012160319

>  <Internal ID>  (689) 


>  <Source>  (689) 
AstraZeneca

$$$$
CHEMBL1934419
     RDKit          2D

 34 36  0  0  1  0  0  0  0  0999 V2000
   -2.2082   -3.0309    0.0000 C   0  0  0  0  0  0  0  0  0  0  0  0
   -2.6137   -2.1168    0.0000 C   0  0  0  0  0  0  0  0  0  0  0  0
   -2.0249   -1.3086    0.0000 N   0  0  0  0  0  0  0  0  0  0  0  0
   -1.0305   -1.4144    0.0000 C   0  0  0  0  0  0  0  0  0  0  0  0
   -0.6250   -2.3285    0.0000 O   0  0  0  0  0  0  0  0  0  0  0  0
    0.0000    0.0000    0.0000 C   0  0  0  0  0  0  0  0  0  0  0  0
   -0.3065    0.9519    0.0000 C   0  0  0  0  0  0  0  0  0  0  0  0
   -1.2577    1.2605    0.0000 C   0  0  0  0  0  0  0  0  0  0  0  0
    0.5008    1.5428    0.0000 N   0  0  0  0  0  0  0  0  0  0  0  0
    1.3133    0.9519    0.0000 N   0  0  0  0  0  0  0  0  0  0  0  0
    2.2648    1.2596    0.0000 C   0  0  0  0  0  0  0  0  0  0  0  0
    2.4713    2.2380    0.0000 C   0  0  0  0  0  0  0  0  0  0  0  0
    3.4277    2.5473    0.0000 C   0  0  0  0  0  0  0  0  0  0  0  0
    4.1777    1.8781    0.0000 S   0  0  0  0  0  0  0  0  0  0  0  0
    4.7071    2.7264    0.0000 O   0  0  0  0  0  0  0  0  0  0  0  0
    5.1036    1.5003    0.0000 O   0  0  0  0  0  0  0  0  0  0  0  0
    3.9615    0.8965    0.0000 C   0  0  0  0  0  0  0  0  0  0  0  0
    3.0051    0.5872    0.0000 C   0  0  0  0  0  0  0  0  0  0  0  0
    1.0015   -0.0000    0.0000 C   0  0  0  0  0  0  0  0  0  0  0  0
    2.0284   -1.4170    0.0000 N   0  0  0  0  0  0  0  0  0  0  0  0
    1.6206   -2.3301    0.0000 S   0  0  0  0  0  0  0  0  0  0  0  0
    2.5337   -2.7379    0.0000 O   0  0  0  0  0  0  0  0  0  0  0  0
    0.7076   -1.9222    0.0000 O   0  0  0  0  0  0  0  0  0  0  0  0
    1.2128   -3.2431    0.0000 C   0  0  0  0  0  0  0  0  0  0  0  0
    0.2127   -3.3441    0.0000 C   0  0  0  0  0  0  0  0  0  0  0  0
   -0.1952   -4.2571    0.0000 C   0  0  0  0  0  0  0  0  0  0  0  0
    0.3869   -5.0703    0.0000 C   0  0  0  0  0  0  0  0  0  0  0  0
   -0.0250   -5.9815    0.0000 C   0  0  0  0  0  0  0  0  0  0  0  0
    1.3870   -4.9694    0.0000 C   0  0  0  0  0  0  0  0  0  0  0  0
    1.8050   -4.0553    0.0000 C   0  0  0  0  0  0  0  0  0  0  0  0
   -3.6081   -2.0110    0.0000 C   0  0  0  0  0  0  0  0  0  0  0  0
   -4.6025   -1.9051    0.0000 C   0  0  0  0  0  0  0  0  0  0  0  0
   -3.5023   -1.0166    0.0000 C   0  0  0  0  0  0  0  0  0  0  0  0
   -3.7140   -3.0053    0.0000 C   0  0  0  0  0  0  0  0  0  0  0  0
  2  1  1  1
  2  3  1  0
  3  4  1  0
  4  5  2  0
  4  6  1  0
  6 19  2  0
  6  7  1  0
  7  8  1  0
  7  9  2  0
  9 10  1  0
 10 11  1  0
 11 18  1  0
 11 12  1  0
 12 13  1  0
 13 14  1  0
 14 15  2  0
 14 16  2  0
 14 17  1  0
 17 18  1  0
 10 19  1  0
 19 20  1  0
 20 21  1  0
 21 22  2  0
 21 23  2  0
 21 24  1  0
 24 30  1  0
 24 25  2  0
 25 26  1  0
 26 27  2  0
 27 28  1  0
 27 29  1  0
 29 30  2  0
  2 31  1  0
 31 32  1  0
 31 33  1  0
 31 34  1  0
M  END
>  <SMILES>  (690) 
Cc1ccc(S(=O)(=O)Nc2c(C(=O)N[C@@H](C)C(C)(C)C)c(C)nn2C2CCS(=O)(=O)CC2)cc1

>  <CollectionName>  (690) 
chembl

>  <LOG PLASMA PROTEIN BINDING (RAT) (% unbound)>  (690) 
1.41077723338

>  <Internal ID>  (690) 


>  <Source>  (690) 
AstraZeneca

$$$$
CHEMBL551360
     RDKit          2D

 30 34  0  0  0  0  0  0  0  0999 V2000
    3.4955    3.0014    0.0000 O   0  0  0  0  0  0  0  0  0  0  0  0
    4.3588    2.4968    0.0000 C   0  0  0  0  0  0  0  0  0  0  0  0
    4.3535    1.4968    0.0000 C   0  0  0  0  0  0  0  0  0  0  0  0
    5.2168    0.9922    0.0000 C   0  0  0  0  0  0  0  0  0  0  0  0
    6.0855    1.4875    0.0000 O   0  0  0  0  0  0  0  0  0  0  0  0
    3.4848    1.0014    0.0000 N   0  0  0  0  0  0  0  0  0  0  0  0
    3.4805   -0.0073    0.0000 C   0  0  0  0  0  0  0  0  0  0  0  0
    2.6039   -0.5053    0.0000 C   0  0  0  0  0  0  0  0  0  0  0  0
    1.7371    0.0000    0.0000 C   0  0  0  0  0  0  0  0  0  0  0  0
    0.8707   -0.4993    0.0000 C   0  0  0  0  0  0  0  0  0  0  0  0
    0.8718   -1.4993    0.0000 N   0  0  0  0  0  0  0  0  0  0  0  0
    1.7383   -1.9984    0.0000 C   0  0  0  0  0  0  0  0  0  0  0  0
    2.6038   -1.4974    0.0000 O   0  0  0  0  0  0  0  0  0  0  0  0
    1.7394   -2.9984    0.0000 C   0  0  0  0  0  0  0  0  0  0  0  0
    2.6060   -3.4974    0.0000 C   0  0  0  0  0  0  0  0  0  0  0  0
    2.4448   -4.4944    0.0000 C   0  0  0  0  0  0  0  0  0  0  0  0
    3.3764   -4.9925    0.0000 C   0  0  0  0  0  0  0  0  0  0  0  0
    3.7670   -6.1676    0.0000 C   0  0  0  0  0  0  0  0  0  0  0  0
    4.0119   -5.0915    0.0000 C   0  0  0  0  0  0  0  0  0  0  0  0
    4.8324   -4.4051    0.0000 C   0  0  0  0  0  0  0  0  0  0  0  0
    4.3796   -3.3434    0.0000 C   0  0  0  0  0  0  0  0  0  0  0  0
    4.1244   -4.3288    0.0000 C   0  0  0  0  0  0  0  0  0  0  0  0
    3.4321   -2.8211    0.0000 C   0  0  0  0  0  0  0  0  0  0  0  0
    3.0199   -4.5580    0.0000 C   0  0  0  0  0  0  0  0  0  0  0  0
    0.0000    0.0000    0.0000 C   0  0  0  0  0  0  0  0  0  0  0  0
    0.0000    1.0089    0.0000 C   0  0  0  0  0  0  0  0  0  0  0  0
    0.8707    1.5185    0.0000 C   0  0  0  0  0  0  0  0  0  0  0  0
    1.7414    1.0089    0.0000 C   0  0  0  0  0  0  0  0  0  0  0  0
    2.6125    1.5125    0.0000 C   0  0  0  0  0  0  0  0  0  0  0  0
    2.6154    2.5125    0.0000 O   0  0  0  0  0  0  0  0  0  0  0  0
  1  2  1  0
  2  3  1  0
  3  4  1  0
  4  5  1  0
  3  6  1  0
  6 29  1  0
  6  7  1  0
  7  8  2  0
  8  9  1  0
  9 28  2  0
  9 10  1  0
 10 11  1  0
 11 12  1  0
 12 13  2  0
 12 14  1  0
 14 15  1  0
 15 23  1  0
 15 24  1  0
 15 16  1  0
 16 17  1  0
 17 22  1  0
 17 18  1  0
 18 19  1  0
 19 20  1  0
 20 21  1  0
 21 22  1  0
 21 23  1  0
 19 24  1  0
 10 25  2  0
 25 26  1  0
 26 27  2  0
 27 28  1  0
 28 29  1  0
 29 30  2  0
M  END
>  <SMILES>  (691) 
O=C(CC12CC3CC(CC(C3)C1)C2)Nc1cccc2c(=O)n(C(CO)CO)ccc12

>  <CollectionName>  (691) 
chembl

>  <LOG PLASMA PROTEIN BINDING (RAT) (% unbound)>  (691) 
1.06632592536

>  <Internal ID>  (691) 


>  <Source>  (691) 
AstraZeneca

$$$$
CHEMBL1441
     RDKit          2D

 11 11  0  0  0  0  0  0  0  0999 V2000
    2.5995    1.4976    0.0000 C   0  0  0  0  0  0  0  0  0  0  0  0
    1.7350    2.0001    0.0000 C   0  0  0  0  0  0  0  0  0  0  0  0
    0.8675    1.5027    0.0000 C   0  0  0  0  0  0  0  0  0  0  0  0
    0.8675    0.4975    0.0000 C   0  0  0  0  0  0  0  0  0  0  0  0
    0.0000    0.0000    0.0000 C   0  0  0  0  0  0  0  0  0  0  0  0
   -0.8675    0.4975    0.0000 C   0  0  0  0  0  0  0  0  0  0  0  0
   -0.8675    1.5027    0.0000 C   0  0  0  0  0  0  0  0  0  0  0  0
   -0.0000    2.0104    0.0000 N   0  0  0  0  0  0  0  0  0  0  0  0
    0.0000   -1.0000    0.0000 C   0  0  0  0  0  0  0  0  0  0  0  0
   -0.8660   -1.5000    0.0000 S   0  0  0  0  0  0  0  0  0  0  0  0
    0.8660   -1.5000    0.0000 N   0  0  0  0  0  0  0  0  0  0  0  0
  1  2  1  0
  2  3  1  0
  3  8  2  0
  3  4  1  0
  4  5  2  0
  5  6  1  0
  6  7  2  0
  7  8  1  0
  5  9  1  0
  9 10  2  0
  9 11  1  0
M  END
>  <SMILES>  (692) 
CCc1cc(C(N)=S)ccn1

>  <CollectionName>  (692) 
chembl

>  <LOG PLASMA PROTEIN BINDING (RAT) (% unbound)>  (692) 
1.73255457985

>  <Internal ID>  (692) 


>  <Source>  (692) 
AstraZeneca

$$$$
CHEMBL139
     RDKit          2D

 19 20  0  0  0  0  0  0  0  0999 V2000
    4.3323   -0.5038    0.0000 O   0  0  0  0  0  0  0  0  0  0  0  0
    3.4670   -0.0025    0.0000 C   0  0  0  0  0  0  0  0  0  0  0  0
    3.4685    0.9975    0.0000 O   0  0  0  0  0  0  0  0  0  0  0  0
    2.6003   -0.5013    0.0000 C   0  0  0  0  0  0  0  0  0  0  0  0
    1.7350    0.0000    0.0000 C   0  0  0  0  0  0  0  0  0  0  0  0
    0.8675   -0.4975    0.0000 C   0  0  0  0  0  0  0  0  0  0  0  0
    0.0000    0.0000    0.0000 C   0  0  0  0  0  0  0  0  0  0  0  0
    0.0000    1.0052    0.0000 C   0  0  0  0  0  0  0  0  0  0  0  0
    0.8675    1.5129    0.0000 C   0  0  0  0  0  0  0  0  0  0  0  0
    1.7350    1.0052    0.0000 C   0  0  0  0  0  0  0  0  0  0  0  0
    2.6025    1.5026    0.0000 N   0  0  0  0  0  0  0  0  0  0  0  0
    2.6054    2.5026    0.0000 C   0  0  0  0  0  0  0  0  0  0  0  0
    3.4744    3.0078    0.0000 C   0  0  0  0  0  0  0  0  0  0  0  0
    4.3405    2.5078    0.0000 Cl  0  0  0  0  0  0  0  0  0  0  0  0
    3.4774    4.0130    0.0000 C   0  0  0  0  0  0  0  0  0  0  0  0
    2.6114    4.5130    0.0000 C   0  0  0  0  0  0  0  0  0  0  0  0
    1.7424    4.0181    0.0000 C   0  0  0  0  0  0  0  0  0  0  0  0
    1.7394    3.0129    0.0000 C   0  0  0  0  0  0  0  0  0  0  0  0
    0.8705    2.5180    0.0000 Cl  0  0  0  0  0  0  0  0  0  0  0  0
  1  2  1  0
  2  3  2  0
  2  4  1  0
  4  5  1  0
  5 10  2  0
  5  6  1  0
  6  7  2  0
  7  8  1  0
  8  9  2  0
  9 10  1  0
 10 11  1  0
 11 12  1  0
 12 18  1  0
 12 13  2  0
 13 14  1  0
 13 15  1  0
 15 16  2  0
 16 17  1  0
 17 18  2  0
 18 19  1  0
M  END
>  <SMILES>  (693) 
O=C(O)Cc1ccccc1Nc1c(Cl)cccc1Cl

>  <CollectionName>  (693) 
chembl

>  <LOG PLASMA PROTEIN BINDING (RAT) (% unbound)>  (693) 
-0.142667503569

>  <Internal ID>  (693) 


>  <Source>  (693) 
AstraZeneca

$$$$
CHEMBL643
     RDKit          2D

 20 22  0  0  1  0  0  0  0  0999 V2000
    4.3306    1.5113    0.0000 C   0  0  0  0  0  0  0  0  0  0  0  0
    3.4632    2.0090    0.0000 C   0  0  0  0  0  0  0  0  0  0  0  0
    2.5985    1.5067    0.0000 C   0  0  0  0  0  0  0  0  0  0  0  0
    2.6012    0.5067    0.0000 N   0  0  0  0  0  0  0  0  0  0  0  0
    1.7358   -0.0000    0.0000 C   0  0  0  0  0  0  0  0  0  0  0  0
    0.8679    0.5079    0.0000 C   0  0  0  0  0  0  0  0  0  0  0  0
    0.0000    0.0000    0.0000 C   0  0  0  0  0  0  0  0  0  0  0  0
    0.0000   -1.0057    0.0000 C   0  0  0  0  0  0  0  0  0  0  0  0
    0.8679   -1.5033    0.0000 C   0  0  0  0  0  0  0  0  0  0  0  0
    1.7371   -1.0057    0.0000 C   0  0  0  0  0  0  0  0  0  0  0  0
    2.6038   -1.5046    0.0000 S   0  0  0  0  0  0  0  0  0  0  0  0
    3.4738   -1.0059    0.0000 C   0  0  0  0  0  0  0  0  0  0  0  0
    4.3422   -1.5068    0.0000 C   0  0  0  0  0  0  0  0  0  0  0  0
    5.2158   -1.0053    0.0000 C   0  0  0  0  0  0  0  0  0  0  0  0
    5.2154    0.0028    0.0000 C   0  0  0  0  0  0  0  0  0  0  0  0
    4.3415    0.5094    0.0000 C   0  0  0  0  0  0  0  0  0  0  0  0
    3.4735    0.0022    0.0000 C   0  0  0  0  0  0  0  0  0  0  0  0
    3.4605    3.0090    0.0000 N   0  0  0  0  0  0  0  0  0  0  0  0
    2.5932    3.5067    0.0000 C   0  0  0  0  0  0  0  0  0  0  0  0
    4.3252    3.5113    0.0000 C   0  0  0  0  0  0  0  0  0  0  0  0
  1  2  1  0
  2  3  1  0
  3  4  1  0
  4 17  1  0
  4  5  1  0
  5 10  2  0
  5  6  1  0
  6  7  2  0
  7  8  1  0
  8  9  2  0
  9 10  1  0
 10 11  1  0
 11 12  1  0
 12 17  2  0
 12 13  1  0
 13 14  2  0
 14 15  1  0
 15 16  2  0
 16 17  1  0
  2 18  1  0
 18 19  1  0
 18 20  1  0
M  END
>  <SMILES>  (694) 
CC(CN1c2ccccc2Sc2ccccc21)N(C)C

>  <CollectionName>  (694) 
chembl

>  <LOG PLASMA PROTEIN BINDING (RAT) (% unbound)>  (694) 
0.848189116991

>  <Internal ID>  (694) 


>  <Source>  (694) 
AstraZeneca

$$$$
CHEMBL652
     RDKit          2D

 28 29  0  0  1  0  0  0  0  0999 V2000
   -1.1889    8.8872    0.0000 F   0  0  0  0  0  0  0  0  0  0  0  0
   -1.6965    8.0256    0.0000 C   0  0  0  0  0  0  0  0  0  0  0  0
   -2.2042    7.1640    0.0000 F   0  0  0  0  0  0  0  0  0  0  0  0
   -2.5581    8.5332    0.0000 F   0  0  0  0  0  0  0  0  0  0  0  0
   -0.8350    7.5179    0.0000 C   0  0  0  0  0  0  0  0  0  0  0  0
   -0.8438    6.5180    0.0000 O   0  0  0  0  0  0  0  0  0  0  0  0
    0.0177    6.0103    0.0000 C   0  0  0  0  0  0  0  0  0  0  0  0
    0.8912    6.5078    0.0000 C   0  0  0  0  0  0  0  0  0  0  0  0
    1.7528    6.0002    0.0000 C   0  0  0  0  0  0  0  0  0  0  0  0
    1.7498    5.0001    0.0000 C   0  0  0  0  0  0  0  0  0  0  0  0
    2.6136    4.4963    0.0000 O   0  0  0  0  0  0  0  0  0  0  0  0
    2.6092    3.4963    0.0000 C   0  0  0  0  0  0  0  0  0  0  0  0
    3.4730    2.9925    0.0000 C   0  0  0  0  0  0  0  0  0  0  0  0
    2.9691    2.1287    0.0000 F   0  0  0  0  0  0  0  0  0  0  0  0
    3.9768    3.8562    0.0000 F   0  0  0  0  0  0  0  0  0  0  0  0
    4.3368    2.4886    0.0000 F   0  0  0  0  0  0  0  0  0  0  0  0
    0.8764    4.5027    0.0000 C   0  0  0  0  0  0  0  0  0  0  0  0
    0.0059    5.0053    0.0000 C   0  0  0  0  0  0  0  0  0  0  0  0
    0.8734    3.5027    0.0000 C   0  0  0  0  0  0  0  0  0  0  0  0
    0.0059    3.0052    0.0000 O   0  0  0  0  0  0  0  0  0  0  0  0
    1.7379    3.0001    0.0000 N   0  0  0  0  0  0  0  0  0  0  0  0
    1.7350    2.0001    0.0000 C   0  0  0  0  0  0  0  0  0  0  0  0
    0.8675    1.5027    0.0000 C   0  0  0  0  0  0  0  0  0  0  0  0
    0.8675    0.4975    0.0000 C   0  0  0  0  0  0  0  0  0  0  0  0
    0.0000    0.0000    0.0000 C   0  0  0  0  0  0  0  0  0  0  0  0
   -0.8675    0.4975    0.0000 C   0  0  0  0  0  0  0  0  0  0  0  0
   -0.8675    1.5027    0.0000 C   0  0  0  0  0  0  0  0  0  0  0  0
   -0.0000    2.0104    0.0000 N   0  0  0  0  0  0  0  0  0  0  0  0
  1  2  1  0
  2  3  1  0
  2  4  1  0
  2  5  1  0
  5  6  1  0
  6  7  1  0
  7 18  2  0
  7  8  1  0
  8  9  2  0
  9 10  1  0
 10 11  1  0
 11 12  1  0
 12 13  1  0
 13 14  1  0
 13 15  1  0
 13 16  1  0
 10 17  2  0
 17 18  1  0
 17 19  1  0
 19 20  2  0
 19 21  1  0
 21 22  1  0
 22 23  1  0
 23 28  1  0
 23 24  1  0
 24 25  1  0
 25 26  1  0
 26 27  1  0
 27 28  1  0
M  END
>  <SMILES>  (695) 
O=C(NCC1CCCCN1)c1cc(OCC(F)(F)F)ccc1OCC(F)(F)F

>  <CollectionName>  (695) 
chembl

>  <LOG PLASMA PROTEIN BINDING (RAT) (% unbound)>  (695) 
1.72794770954

>  <Internal ID>  (695) 


>  <Source>  (695) 
AstraZeneca

$$$$
CHEMBL1868126
     RDKit          2D

 20 22  0  0  0  0  0  0  0  0999 V2000
    0.0012   -1.9973    0.0000 C   0  0  0  0  0  0  0  0  0  0  0  0
    0.8675   -1.4978    0.0000 O   0  0  0  0  0  0  0  0  0  0  0  0
    0.8680   -0.4978    0.0000 C   0  0  0  0  0  0  0  0  0  0  0  0
    0.0000    0.0000    0.0000 C   0  0  0  0  0  0  0  0  0  0  0  0
    0.0000    1.0058    0.0000 C   0  0  0  0  0  0  0  0  0  0  0  0
    0.8680    1.5138    0.0000 C   0  0  0  0  0  0  0  0  0  0  0  0
    1.7360    1.0058    0.0000 C   0  0  0  0  0  0  0  0  0  0  0  0
    2.6938    1.3169    0.0000 S   0  0  0  0  0  0  0  0  0  0  0  0
    3.2858    0.5023    0.0000 C   0  0  0  0  0  0  0  0  0  0  0  0
    4.2858    0.5024    0.0000 N   0  0  0  0  0  0  0  0  0  0  0  0
    4.7857    1.3684    0.0000 C   0  0  0  0  0  0  0  0  0  0  0  0
    4.2857    2.2344    0.0000 O   0  0  0  0  0  0  0  0  0  0  0  0
    5.7857    1.3685    0.0000 C   0  0  0  0  0  0  0  0  0  0  0  0
    6.2857    2.2405    0.0000 C   0  0  0  0  0  0  0  0  0  0  0  0
    7.2858    2.2406    0.0000 C   0  0  0  0  0  0  0  0  0  0  0  0
    7.7909    1.3775    0.0000 C   0  0  0  0  0  0  0  0  0  0  0  0
    7.2909    0.5055    0.0000 C   0  0  0  0  0  0  0  0  0  0  0  0
    6.2858    0.4965    0.0000 C   0  0  0  0  0  0  0  0  0  0  0  0
    2.6938   -0.3125    0.0000 N   0  0  0  0  0  0  0  0  0  0  0  0
    1.7360   -0.0012    0.0000 C   0  0  0  0  0  0  0  0  0  0  0  0
  1  2  1  0
  2  3  1  0
  3 20  2  0
  3  4  1  0
  4  5  2  0
  5  6  1  0
  6  7  2  0
  7 20  1  0
  7  8  1  0
  8  9  1  0
  9 10  1  0
 10 11  1  0
 11 12  2  0
 11 13  1  0
 13 18  1  0
 13 14  2  0
 14 15  1  0
 15 16  2  0
 16 17  1  0
 17 18  2  0
  9 19  2  0
 19 20  1  0
M  END
>  <SMILES>  (696) 
COc1cccc2sc(NC(=O)c3ccccc3)nc12

>  <CollectionName>  (696) 
chembl

>  <LOG PLASMA PROTEIN BINDING (RAT) (% unbound)>  (696) 
0.00432137378264

>  <Internal ID>  (696) 


>  <Source>  (696) 
AstraZeneca

$$$$
CHEMBL631
     RDKit          2D

 25 26  0  0  1  0  0  0  0  0999 V2000
    1.7460    6.0013    0.0000 C   0  0  0  0  0  0  0  0  0  0  0  0
    2.6113    5.5001    0.0000 C   0  0  0  0  0  0  0  0  0  0  0  0
    2.6098    4.5001    0.0000 C   0  0  0  0  0  0  0  0  0  0  0  0
    3.4751    3.9988    0.0000 N   0  0  0  0  0  0  0  0  0  0  0  0
    3.4737    2.9988    0.0000 C   0  0  0  0  0  0  0  0  0  0  0  0
    4.3390    2.4976    0.0000 C   0  0  0  0  0  0  0  0  0  0  0  0
    5.2057    2.9963    0.0000 O   0  0  0  0  0  0  0  0  0  0  0  0
    4.3375    1.4976    0.0000 C   0  0  0  0  0  0  0  0  0  0  0  0
    5.2028    0.9963    0.0000 O   0  0  0  0  0  0  0  0  0  0  0  0
    5.2014   -0.0037    0.0000 C   0  0  0  0  0  0  0  0  0  0  0  0
    6.0726   -0.5050    0.0000 C   0  0  0  0  0  0  0  0  0  0  0  0
    6.0622   -1.5101    0.0000 C   0  0  0  0  0  0  0  0  0  0  0  0
    5.1895   -2.0088    0.0000 C   0  0  0  0  0  0  0  0  0  0  0  0
    4.3271   -1.5025    0.0000 C   0  0  0  0  0  0  0  0  0  0  0  0
    4.3286   -0.5025    0.0000 C   0  0  0  0  0  0  0  0  0  0  0  0
    3.4641    0.0001    0.0000 C   0  0  0  0  0  0  0  0  0  0  0  0
    2.5966   -0.4973    0.0000 O   0  0  0  0  0  0  0  0  0  0  0  0
    3.4670    1.0001    0.0000 C   0  0  0  0  0  0  0  0  0  0  0  0
    2.6025    1.5026    0.0000 C   0  0  0  0  0  0  0  0  0  0  0  0
    1.7350    1.0052    0.0000 C   0  0  0  0  0  0  0  0  0  0  0  0
    1.7350   -0.0000    0.0000 C   0  0  0  0  0  0  0  0  0  0  0  0
    0.8675   -0.4975    0.0000 C   0  0  0  0  0  0  0  0  0  0  0  0
    0.0000    0.0000    0.0000 C   0  0  0  0  0  0  0  0  0  0  0  0
    0.0000    1.0052    0.0000 C   0  0  0  0  0  0  0  0  0  0  0  0
    0.8675    1.5129    0.0000 C   0  0  0  0  0  0  0  0  0  0  0  0
  1  2  1  0
  2  3  1  0
  3  4  1  0
  4  5  1  0
  5  6  1  0
  6  7  1  0
  6  8  1  0
  8  9  1  0
  9 10  1  0
 10 15  2  0
 10 11  1  0
 11 12  2  0
 12 13  1  0
 13 14  2  0
 14 15  1  0
 15 16  1  0
 16 17  2  0
 16 18  1  0
 18 19  1  0
 19 20  1  0
 20 25  1  0
 20 21  2  0
 21 22  1  0
 22 23  2  0
 23 24  1  0
 24 25  2  0
M  END
>  <SMILES>  (697) 
CCCNCC(O)COc1ccccc1C(=O)CCc1ccccc1

>  <CollectionName>  (697) 
chembl

>  <LOG PLASMA PROTEIN BINDING (RAT) (% unbound)>  (697) 
0.611723308007

>  <Internal ID>  (697) 


>  <Source>  (697) 
AstraZeneca

$$$$
CHEMBL1404
     RDKit          2D

 31 33  0  0  1  0  0  0  0  0999 V2000
    1.7395   -4.9949    0.0000 C   0  0  0  0  0  0  0  0  0  0  0  0
    0.8727   -4.4962    0.0000 O   0  0  0  0  0  0  0  0  0  0  0  0
    0.0075   -4.9975    0.0000 C   0  0  0  0  0  0  0  0  0  0  0  0
    0.0075   -5.9976    0.0000 C   0  0  0  0  0  0  0  0  0  0  0  0
   -0.8556   -6.5026    0.0000 C   0  0  0  0  0  0  0  0  0  0  0  0
   -1.7276   -6.0026    0.0000 C   0  0  0  0  0  0  0  0  0  0  0  0
   -1.7365   -4.9975    0.0000 C   0  0  0  0  0  0  0  0  0  0  0  0
   -0.8645   -4.4975    0.0000 C   0  0  0  0  0  0  0  0  0  0  0  0
   -0.8645   -3.4975    0.0000 O   0  0  0  0  0  0  0  0  0  0  0  0
    0.0015   -2.9975    0.0000 C   0  0  0  0  0  0  0  0  0  0  0  0
    0.0015   -1.9975    0.0000 C   0  0  0  0  0  0  0  0  0  0  0  0
   -0.8645   -1.4975    0.0000 O   0  0  0  0  0  0  0  0  0  0  0  0
    0.8675   -1.4975    0.0000 C   0  0  0  0  0  0  0  0  0  0  0  0
    0.8675   -0.4975    0.0000 N   0  0  0  0  0  0  0  0  0  0  0  0
    0.0000    0.0000    0.0000 C   0  0  0  0  0  0  0  0  0  0  0  0
    0.0000    1.0052    0.0000 C   0  0  0  0  0  0  0  0  0  0  0  0
    0.8675    1.5129    0.0000 N   0  0  0  0  0  0  0  0  0  0  0  0
    0.8675    2.5129    0.0000 C   0  0  0  0  0  0  0  0  0  0  0  0
    1.7335    3.0129    0.0000 C   0  0  0  0  0  0  0  0  0  0  0  0
    2.5996    2.5129    0.0000 O   0  0  0  0  0  0  0  0  0  0  0  0
    1.7335    4.0129    0.0000 N   0  0  0  0  0  0  0  0  0  0  0  0
    2.5996    4.5129    0.0000 C   0  0  0  0  0  0  0  0  0  0  0  0
    3.4730    4.0155    0.0000 C   0  0  0  0  0  0  0  0  0  0  0  0
    3.4759    3.0155    0.0000 C   0  0  0  0  0  0  0  0  0  0  0  0
    4.3435    4.5181    0.0000 C   0  0  0  0  0  0  0  0  0  0  0  0
    4.3406    5.5181    0.0000 C   0  0  0  0  0  0  0  0  0  0  0  0
    3.4760    6.0206    0.0000 C   0  0  0  0  0  0  0  0  0  0  0  0
    2.6055    5.5180    0.0000 C   0  0  0  0  0  0  0  0  0  0  0  0
    1.7409    6.0206    0.0000 C   0  0  0  0  0  0  0  0  0  0  0  0
    1.7350    1.0052    0.0000 C   0  0  0  0  0  0  0  0  0  0  0  0
    1.7350    0.0000    0.0000 C   0  0  0  0  0  0  0  0  0  0  0  0
  1  2  1  0
  2  3  1  0
  3  8  2  0
  3  4  1  0
  4  5  2  0
  5  6  1  0
  6  7  2  0
  7  8  1  0
  8  9  1  0
  9 10  1  0
 10 11  1  0
 11 12  1  0
 11 13  1  0
 13 14  1  0
 14 31  1  0
 14 15  1  0
 15 16  1  0
 16 17  1  0
 17 18  1  0
 18 19  1  0
 19 20  2  0
 19 21  1  0
 21 22  1  0
 22 28  1  0
 22 23  2  0
 23 24  1  0
 23 25  1  0
 25 26  2  0
 26 27  1  0
 27 28  2  0
 28 29  1  0
 17 30  1  0
 30 31  1  0
M  END
>  <SMILES>  (698) 
COc1ccccc1OCC(O)CN1CCN(CC(=O)Nc2c(C)cccc2C)CC1

>  <CollectionName>  (698) 
chembl

>  <LOG PLASMA PROTEIN BINDING (RAT) (% unbound)>  (698) 
1.66791968532

>  <Internal ID>  (698) 


>  <Source>  (698) 
AstraZeneca

$$$$
CHEMBL1359986
     RDKit          2D

 22 24  0  0  0  0  0  0  0  0999 V2000
    0.3852   -8.7246    0.0000 C   0  0  0  0  0  0  0  0  0  0  0  0
   -0.0272   -7.8136    0.0000 C   0  0  0  0  0  0  0  0  0  0  0  0
    0.5544   -7.0001    0.0000 C   0  0  0  0  0  0  0  0  0  0  0  0
    0.1459   -6.0873    0.0000 C   0  0  0  0  0  0  0  0  0  0  0  0
   -0.8542   -5.9870    0.0000 C   0  0  0  0  0  0  0  0  0  0  0  0
   -1.2626   -5.0742    0.0000 N   0  0  0  0  0  0  0  0  0  0  0  0
   -0.6763   -4.2641    0.0000 C   0  0  0  0  0  0  0  0  0  0  0  0
    0.3184   -4.3668    0.0000 O   0  0  0  0  0  0  0  0  0  0  0  0
   -1.0847   -3.3513    0.0000 N   0  0  0  0  0  0  0  0  0  0  0  0
   -0.4984   -2.5412    0.0000 C   0  0  0  0  0  0  0  0  0  0  0  0
    0.5015   -2.5424    0.0000 N   0  0  0  0  0  0  0  0  0  0  0  0
    0.8097   -1.5895    0.0000 N   0  0  0  0  0  0  0  0  0  0  0  0
    0.0000   -1.0000    0.0000 C   0  0  0  0  0  0  0  0  0  0  0  0
   -0.8121   -1.5913    0.0000 S   0  0  0  0  0  0  0  0  0  0  0  0
    0.0000    0.0000    0.0000 C   0  0  0  0  0  0  0  0  0  0  0  0
   -0.8675    0.4975    0.0000 C   0  0  0  0  0  0  0  0  0  0  0  0
   -0.8675    1.5027    0.0000 C   0  0  0  0  0  0  0  0  0  0  0  0
   -0.0000    2.0104    0.0000 N   0  0  0  0  0  0  0  0  0  0  0  0
    0.8675    1.5027    0.0000 C   0  0  0  0  0  0  0  0  0  0  0  0
    0.8675    0.4975    0.0000 C   0  0  0  0  0  0  0  0  0  0  0  0
   -1.4460   -6.7995    0.0000 C   0  0  0  0  0  0  0  0  0  0  0  0
   -1.0274   -7.7133    0.0000 C   0  0  0  0  0  0  0  0  0  0  0  0
  1  2  1  0
  2 22  2  0
  2  3  1  0
  3  4  2  0
  4  5  1  0
  5  6  1  0
  6  7  1  0
  7  8  2  0
  7  9  1  0
  9 10  1  0
 10 14  1  0
 10 11  2  0
 11 12  1  0
 12 13  2  0
 13 14  1  0
 13 15  1  0
 15 20  1  0
 15 16  2  0
 16 17  1  0
 17 18  2  0
 18 19  1  0
 19 20  2  0
  5 21  2  0
 21 22  1  0
M  END
>  <SMILES>  (699) 
Cc1ccc(NC(=O)Nc2nnc(-c3ccncc3)s2)cc1

>  <CollectionName>  (699) 
chembl

>  <LOG PLASMA PROTEIN BINDING (RAT) (% unbound)>  (699) 
-0.193820026016

>  <Internal ID>  (699) 


>  <Source>  (699) 
AstraZeneca

$$$$
CHEMBL1807821
     RDKit          2D

 30 32  0  0  1  0  0  0  0  0999 V2000
    1.7340    3.0138    0.0000 O   0  0  0  0  0  0  0  0  0  0  0  0
    0.8680    2.5138    0.0000 C   0  0  0  0  0  0  0  0  0  0  0  0
    0.0020    3.0138    0.0000 C   0  0  0  0  0  0  0  0  0  0  0  0
    0.0020    4.0138    0.0000 N   0  0  0  0  0  0  0  0  0  0  0  0
   -0.8641    4.5138    0.0000 C   0  0  0  0  0  0  0  0  0  0  0  0
   -0.8641    5.5138    0.0000 C   0  0  0  0  0  0  0  0  0  0  0  0
   -1.7301    6.0138    0.0000 C   0  0  0  0  0  0  0  0  0  0  0  0
   -1.7301    7.0138    0.0000 O   0  0  0  0  0  0  0  0  0  0  0  0
   -2.5961    7.5138    0.0000 C   0  0  0  0  0  0  0  0  0  0  0  0
   -2.5961    8.5138    0.0000 C   0  0  0  0  0  0  0  0  0  0  0  0
   -3.4621    9.0138    0.0000 O   0  0  0  0  0  0  0  0  0  0  0  0
   -3.4621   10.0138    0.0000 C   0  0  0  0  0  0  0  0  0  0  0  0
   -4.3282   10.5138    0.0000 C   0  0  0  0  0  0  0  0  0  0  0  0
   -4.3282   11.5138    0.0000 C   0  0  0  0  0  0  0  0  0  0  0  0
   -5.2002   12.0138    0.0000 C   0  0  0  0  0  0  0  0  0  0  0  0
   -5.2002   13.0139    0.0000 C   0  0  0  0  0  0  0  0  0  0  0  0
   -4.3371   13.5189    0.0000 C   0  0  0  0  0  0  0  0  0  0  0  0
   -3.4651   13.0189    0.0000 C   0  0  0  0  0  0  0  0  0  0  0  0
   -3.4562   12.0138    0.0000 C   0  0  0  0  0  0  0  0  0  0  0  0
    0.8680    1.5138    0.0000 C   0  0  0  0  0  0  0  0  0  0  0  0
    0.0000    1.0058    0.0000 C   0  0  0  0  0  0  0  0  0  0  0  0
    0.0000    0.0000    0.0000 C   0  0  0  0  0  0  0  0  0  0  0  0
    0.8680   -0.4978    0.0000 C   0  0  0  0  0  0  0  0  0  0  0  0
    0.8675   -1.4978    0.0000 O   0  0  0  0  0  0  0  0  0  0  0  0
    1.7360   -0.0012    0.0000 C   0  0  0  0  0  0  0  0  0  0  0  0
    2.6938   -0.3125    0.0000 N   0  0  0  0  0  0  0  0  0  0  0  0
    3.2858    0.5023    0.0000 C   0  0  0  0  0  0  0  0  0  0  0  0
    4.2858    0.5024    0.0000 O   0  0  0  0  0  0  0  0  0  0  0  0
    2.6938    1.3169    0.0000 S   0  0  0  0  0  0  0  0  0  0  0  0
    1.7360    1.0058    0.0000 C   0  0  0  0  0  0  0  0  0  0  0  0
  2  1  1  6
  2  3  1  0
  3  4  1  0
  4  5  1  0
  5  6  1  0
  6  7  1  0
  7  8  1  0
  8  9  1  0
  9 10  1  0
 10 11  1  0
 11 12  1  0
 12 13  1  0
 13 14  1  0
 14 19  1  0
 14 15  2  0
 15 16  1  0
 16 17  2  0
 17 18  1  0
 18 19  2  0
  2 20  1  0
 20 30  1  0
 20 21  2  0
 21 22  1  0
 22 23  2  0
 23 24  1  0
 23 25  1  0
 25 30  2  0
 25 26  1  0
 26 27  1  0
 27 28  2  0
 27 29  1  0
 29 30  1  0
M  END
>  <SMILES>  (700) 
O=c1[nH]c2c(O)ccc([C@@H](O)CNCCCOCCOCCc3ccccc3)c2s1

>  <CollectionName>  (700) 
chembl

>  <LOG PLASMA PROTEIN BINDING (RAT) (% unbound)>  (700) 
1.66791968532

>  <Internal ID>  (700) 


>  <Source>  (700) 
AstraZeneca

$$$$
CHEMBL105462
     RDKit          2D

 64 69  0  0  1  0  0  0  0  0999 V2000
    6.5551   -3.7896    0.0000 C   0  0  0  0  0  0  0  0  0  0  0  0
    5.5770   -3.5816    0.0000 C   0  0  0  0  0  0  0  0  0  0  0  0
    4.9078   -4.3247    0.0000 N   0  0  0  0  0  0  0  0  0  0  0  0
    5.2168   -5.2758    0.0000 C   0  0  0  0  0  0  0  0  0  0  0  0
    6.1949   -5.4838    0.0000 O   0  0  0  0  0  0  0  0  0  0  0  0
    4.5476   -6.0189    0.0000 C   0  0  0  0  0  0  0  0  0  0  0  0
    4.8566   -6.9700    0.0000 C   0  0  0  0  0  0  0  0  0  0  0  0
    5.8347   -7.1780    0.0000 C   0  0  0  0  0  0  0  0  0  0  0  0
    6.5832   -6.5041    0.0000 C   0  0  0  0  0  0  0  0  0  0  0  0
    7.4552   -7.0078    0.0000 N   0  0  0  0  0  0  0  0  0  0  0  0
    7.2458   -7.9929    0.0000 C   0  0  0  0  0  0  0  0  0  0  0  0
    7.8417   -8.8031    0.0000 C   0  0  0  0  0  0  0  0  0  0  0  0
    7.4271   -9.7194    0.0000 C   0  0  0  0  0  0  0  0  0  0  0  0
    6.4268   -9.8244    0.0000 C   0  0  0  0  0  0  0  0  0  0  0  0
    5.8411   -9.0131    0.0000 C   0  0  0  0  0  0  0  0  0  0  0  0
    6.2444   -8.0980    0.0000 C   0  0  0  0  0  0  0  0  0  0  0  0
    3.5695   -5.8110    0.0000 N   0  0  0  0  0  0  0  0  0  0  0  0
    3.2605   -4.8599    0.0000 C   0  0  0  0  0  0  0  0  0  0  0  0
    3.9297   -4.1168    0.0000 O   0  0  0  0  0  0  0  0  0  0  0  0
    2.2824   -4.6519    0.0000 C   0  0  0  0  0  0  0  0  0  0  0  0
    1.6132   -5.3951    0.0000 N   0  0  0  0  0  0  0  0  0  0  0  0
    1.9734   -3.7009    0.0000 C   0  0  0  0  0  0  0  0  0  0  0  0
    0.9953   -3.4929    0.0000 C   0  0  0  0  0  0  0  0  0  0  0  0
    0.2541   -4.1643    0.0000 C   0  0  0  0  0  0  0  0  0  0  0  0
   -0.6134   -3.6639    0.0000 N   0  0  0  0  0  0  0  0  0  0  0  0
   -0.4078   -2.6836    0.0000 C   0  0  0  0  0  0  0  0  0  0  0  0
    0.5912   -2.5777    0.0000 N   0  0  0  0  0  0  0  0  0  0  0  0
    5.2680   -2.6306    0.0000 C   0  0  0  0  0  0  0  0  0  0  0  0
    5.9372   -1.8875    0.0000 O   0  0  0  0  0  0  0  0  0  0  0  0
    4.2899   -2.4226    0.0000 N   0  0  0  0  0  0  0  0  0  0  0  0
    3.9809   -1.4715    0.0000 C   0  0  0  0  0  0  0  0  0  0  0  0
    3.0028   -1.2636    0.0000 C   0  0  0  0  0  0  0  0  0  0  0  0
    2.6938   -0.3125    0.0000 C   0  0  0  0  0  0  0  0  0  0  0  0
    3.2858    0.5023    0.0000 C   0  0  0  0  0  0  0  0  0  0  0  0
    2.6938    1.3169    0.0000 N   0  0  0  0  0  0  0  0  0  0  0  0
    1.7360    1.0058    0.0000 C   0  0  0  0  0  0  0  0  0  0  0  0
    0.8680    1.5138    0.0000 C   0  0  0  0  0  0  0  0  0  0  0  0
    0.0000    1.0058    0.0000 C   0  0  0  0  0  0  0  0  0  0  0  0
    0.0000    0.0000    0.0000 C   0  0  0  0  0  0  0  0  0  0  0  0
    0.8680   -0.4978    0.0000 C   0  0  0  0  0  0  0  0  0  0  0  0
    1.7360   -0.0012    0.0000 C   0  0  0  0  0  0  0  0  0  0  0  0
    4.6501   -0.7284    0.0000 C   0  0  0  0  0  0  0  0  0  0  0  0
    5.6282   -0.9364    0.0000 O   0  0  0  0  0  0  0  0  0  0  0  0
    4.3411    0.2227    0.0000 N   0  0  0  0  0  0  0  0  0  0  0  0
    5.0103    0.9658    0.0000 C   0  0  0  0  0  0  0  0  0  0  0  0
    4.7013    1.9168    0.0000 C   0  0  0  0  0  0  0  0  0  0  0  0
    5.3705    2.6599    0.0000 C   0  0  0  0  0  0  0  0  0  0  0  0
    5.0571    3.6150    0.0000 C   0  0  0  0  0  0  0  0  0  0  0  0
    5.7262    4.3582    0.0000 C   0  0  0  0  0  0  0  0  0  0  0  0
    6.7056    4.1560    0.0000 C   0  0  0  0  0  0  0  0  0  0  0  0
    7.0190    3.2009    0.0000 C   0  0  0  0  0  0  0  0  0  0  0  0
    6.3530    2.4480    0.0000 C   0  0  0  0  0  0  0  0  0  0  0  0
    5.9884    0.7578    0.0000 C   0  0  0  0  0  0  0  0  0  0  0  0
    6.2974   -0.1933    0.0000 O   0  0  0  0  0  0  0  0  0  0  0  0
    6.6576    1.5009    0.0000 N   0  0  0  0  0  0  0  0  0  0  0  0
    7.6357    1.2930    0.0000 C   0  0  0  0  0  0  0  0  0  0  0  0
    8.3049    2.0361    0.0000 C   0  0  0  0  0  0  0  0  0  0  0  0
    7.9959    2.9871    0.0000 C   0  0  0  0  0  0  0  0  0  0  0  0
    8.6651    3.7303    0.0000 C   0  0  0  0  0  0  0  0  0  0  0  0
    8.3561    4.6813    0.0000 C   0  0  0  0  0  0  0  0  0  0  0  0
    9.0253    5.4244    0.0000 N   0  0  0  0  0  0  0  0  0  0  0  0
    7.9447    0.3419    0.0000 C   0  0  0  0  0  0  0  0  0  0  0  0
    7.2755   -0.4012    0.0000 O   0  0  0  0  0  0  0  0  0  0  0  0
    8.9228    0.1339    0.0000 N   0  0  0  0  0  0  0  0  0  0  0  0
  2  1  1  6
  2  3  1  0
  3  4  1  0
  4  5  2  0
  6  4  1  0
  6  7  1  1
  7  8  1  0
  8 16  1  0
  8  9  2  0
  9 10  1  0
 10 11  1  0
 11 16  2  0
 11 12  1  0
 12 13  2  0
 13 14  1  0
 14 15  2  0
 15 16  1  0
  6 17  1  0
 17 18  1  0
 18 19  2  0
 18 20  1  0
 20 21  1  1
 20 22  1  0
 22 23  1  0
 23 27  1  0
 23 24  2  0
 24 25  1  0
 25 26  1  0
 26 27  2  0
  2 28  1  0
 28 29  2  0
 28 30  1  0
 30 31  1  0
 31 32  1  1
 32 33  1  0
 33 41  1  0
 33 34  2  0
 34 35  1  0
 35 36  1  0
 36 41  2  0
 36 37  1  0
 37 38  2  0
 38 39  1  0
 39 40  2  0
 40 41  1  0
 31 42  1  0
 42 43  2  0
 42 44  1  0
 44 45  1  0
 45 46  1  6
 46 47  1  0
 47 52  1  0
 47 48  2  0
 48 49  1  0
 49 50  2  0
 50 51  1  0
 51 52  2  0
 45 53  1  0
 53 54  2  0
 53 55  1  0
 55 56  1  0
 56 57  1  1
 57 58  1  0
 58 59  1  0
 59 60  1  0
 60 61  1  0
 56 62  1  0
 62 63  2  0
 62 64  1  0
M  END
>  <SMILES>  (701) 
C[C@H](NC(=O)[C@@H](Cc1c[nH]c2ccccc12)NC(=O)[C@@H](N)Cc1c[nH]cn1)C(=O)N[C@@H](Cc1c[nH]c2ccccc12)C(=O)N[C@H](Cc1ccccc1)C(=O)N[C@@H](CCCCN)C(N)=O

>  <CollectionName>  (701) 
chembl

>  <LOG PLASMA PROTEIN BINDING (RAT) (% unbound)>  (701) 
1.41813549843

>  <Internal ID>  (701) 


>  <Source>  (701) 
AstraZeneca

$$$$
CHEMBL1354035
     RDKit          2D

 19 21  0  0  0  0  0  0  0  0999 V2000
    5.4136    8.2007    0.0000 C   0  0  0  0  0  0  0  0  0  0  0  0
    4.5348    7.7234    0.0000 O   0  0  0  0  0  0  0  0  0  0  0  0
    4.5088    6.7237    0.0000 C   0  0  0  0  0  0  0  0  0  0  0  0
    3.6301    6.2464    0.0000 C   0  0  0  0  0  0  0  0  0  0  0  0
    3.6041    5.2467    0.0000 N   0  0  0  0  0  0  0  0  0  0  0  0
    2.7253    4.7694    0.0000 C   0  0  0  0  0  0  0  0  0  0  0  0
    2.6993    3.7698    0.0000 C   0  0  0  0  0  0  0  0  0  0  0  0
    3.5521    3.2474    0.0000 O   0  0  0  0  0  0  0  0  0  0  0  0
    1.8206    3.2925    0.0000 N   0  0  0  0  0  0  0  0  0  0  0  0
    1.7946    2.2928    0.0000 C   0  0  0  0  0  0  0  0  0  0  0  0
    0.8413    1.9596    0.0000 C   0  0  0  0  0  0  0  0  0  0  0  0
    0.8471    0.9032    0.0000 C   0  0  0  0  0  0  0  0  0  0  0  0
    0.0000    0.0000    0.0000 C   0  0  0  0  0  0  0  0  0  0  0  0
    1.0628    0.2973    0.0000 C   0  0  0  0  0  0  0  0  0  0  0  0
    2.0572   -0.0972    0.0000 C   0  0  0  0  0  0  0  0  0  0  0  0
    2.7750    0.8067    0.0000 C   0  0  0  0  0  0  0  0  0  0  0  0
    1.7870    0.5617    0.0000 C   0  0  0  0  0  0  0  0  0  0  0  0
    2.7828    1.8886    0.0000 C   0  0  0  0  0  0  0  0  0  0  0  0
    1.0593    1.4236    0.0000 C   0  0  0  0  0  0  0  0  0  0  0  0
  1  2  1  0
  2  3  1  0
  3  4  1  0
  4  5  1  0
  5  6  1  0
  6  7  1  0
  7  8  2  0
  7  9  1  0
  9 10  1  0
 10 18  1  0
 10 19  1  0
 10 11  1  0
 11 12  1  0
 12 17  1  0
 12 13  1  0
 13 14  1  0
 14 15  1  0
 15 16  1  0
 16 17  1  0
 16 18  1  0
 14 19  1  0
M  END
>  <SMILES>  (702) 
COCCNCC(=O)NC12CC3CC(CC(C3)C1)C2

>  <CollectionName>  (702) 
chembl

>  <LOG PLASMA PROTEIN BINDING (RAT) (% unbound)>  (702) 
1.68367729882

>  <Internal ID>  (702) 


>  <Source>  (702) 
AstraZeneca

$$$$
CHEMBL1778642
     RDKit          2D

 23 24  0  0  0  0  0  0  0  0999 V2000
   -1.7350    2.0001    0.0000 C   0  0  0  0  0  0  0  0  0  0  0  0
   -0.8675    1.5026    0.0000 S   0  0  0  0  0  0  0  0  0  0  0  0
   -0.3701    2.3701    0.0000 O   0  0  0  0  0  0  0  0  0  0  0  0
   -1.3649    0.6351    0.0000 O   0  0  0  0  0  0  0  0  0  0  0  0
    0.0000    1.0052    0.0000 C   0  0  0  0  0  0  0  0  0  0  0  0
    0.0000    0.0000    0.0000 C   0  0  0  0  0  0  0  0  0  0  0  0
    0.8675   -0.4975    0.0000 C   0  0  0  0  0  0  0  0  0  0  0  0
    1.7350   -0.0000    0.0000 C   0  0  0  0  0  0  0  0  0  0  0  0
    1.7350    1.0052    0.0000 C   0  0  0  0  0  0  0  0  0  0  0  0
    2.6025    1.5026    0.0000 Cl  0  0  0  0  0  0  0  0  0  0  0  0
    0.8675    1.5129    0.0000 C   0  0  0  0  0  0  0  0  0  0  0  0
    2.6003   -0.5013    0.0000 C   0  0  0  0  0  0  0  0  0  0  0  0
    3.4700    0.0026    0.0000 C   0  0  0  0  0  0  0  0  0  0  0  0
    4.3353   -0.5089    0.0000 C   0  0  0  0  0  0  0  0  0  0  0  0
    5.2050   -0.0153    0.0000 Cl  0  0  0  0  0  0  0  0  0  0  0  0
    4.3309   -1.5141    0.0000 C   0  0  0  0  0  0  0  0  0  0  0  0
    3.4612   -2.0078    0.0000 C   0  0  0  0  0  0  0  0  0  0  0  0
    2.5959   -1.5064    0.0000 C   0  0  0  0  0  0  0  0  0  0  0  0
    1.7284   -2.0039    0.0000 O   0  0  0  0  0  0  0  0  0  0  0  0
    0.8638   -1.5013    0.0000 C   0  0  0  0  0  0  0  0  0  0  0  0
   -0.0037   -1.9988    0.0000 C   0  0  0  0  0  0  0  0  0  0  0  0
   -0.0066   -2.9988    0.0000 O   0  0  0  0  0  0  0  0  0  0  0  0
   -0.8682   -1.4962    0.0000 O   0  0  0  0  0  0  0  0  0  0  0  0
  1  2  1  0
  2  3  2  0
  2  4  2  0
  2  5  1  0
  5 11  2  0
  5  6  1  0
  6  7  2  0
  7  8  1  0
  8  9  2  0
  9 10  1  0
  9 11  1  0
  8 12  1  0
 12 18  1  0
 12 13  2  0
 13 14  1  0
 14 15  1  0
 14 16  2  0
 16 17  1  0
 17 18  2  0
 18 19  1  0
 19 20  1  0
 20 21  1  0
 21 22  2  0
 21 23  1  0
M  END
>  <SMILES>  (703) 
CS(=O)(=O)c1ccc(-c2cc(Cl)ccc2OCC(=O)O)c(Cl)c1

>  <CollectionName>  (703) 
chembl

>  <LOG PLASMA PROTEIN BINDING (RAT) (% unbound)>  (703) 
0.54406804435

>  <Internal ID>  (703) 


>  <Source>  (703) 
AstraZeneca

$$$$
CHEMBL2337979
     RDKit          2D

 27 28  0  0  1  0  0  0  0  0999 V2000
    3.4641    7.0104    0.0000 C   0  0  0  0  0  0  0  0  0  0  0  0
    2.5981    6.5104    0.0000 C   0  0  0  0  0  0  0  0  0  0  0  0
    3.0981    5.6444    0.0000 C   0  0  0  0  0  0  0  0  0  0  0  0
    2.0981    7.3764    0.0000 C   0  0  0  0  0  0  0  0  0  0  0  0
    1.7320    6.0104    0.0000 N   0  0  0  0  0  0  0  0  0  0  0  0
    1.7321    5.0104    0.0000 C   0  0  0  0  0  0  0  0  0  0  0  0
    2.5981    4.5104    0.0000 O   0  0  0  0  0  0  0  0  0  0  0  0
    0.8660    4.5104    0.0000 N   0  0  0  0  0  0  0  0  0  0  0  0
    0.8660    3.5104    0.0000 C   0  0  0  0  0  0  0  0  0  0  0  0
   -0.0000    3.0104    0.0000 C   0  0  0  0  0  0  0  0  0  0  0  0
   -0.0000    2.0104    0.0000 N   0  0  0  0  0  0  0  0  0  0  0  0
   -0.8675    1.5027    0.0000 C   0  0  0  0  0  0  0  0  0  0  0  0
   -0.8675    0.4975    0.0000 C   0  0  0  0  0  0  0  0  0  0  0  0
    0.0000    0.0000    0.0000 C   0  0  0  0  0  0  0  0  0  0  0  0
    0.8675    0.4975    0.0000 C   0  0  0  0  0  0  0  0  0  0  0  0
    0.8675    1.5027    0.0000 C   0  0  0  0  0  0  0  0  0  0  0  0
    1.7328   -0.0038    0.0000 N   0  0  0  0  0  0  0  0  0  0  0  0
    2.5995    0.4950    0.0000 C   0  0  0  0  0  0  0  0  0  0  0  0
    2.6010    1.4950    0.0000 O   0  0  0  0  0  0  0  0  0  0  0  0
    3.4648   -0.0063    0.0000 C   0  0  0  0  0  0  0  0  0  0  0  0
    4.3302    0.4950    0.0000 C   0  0  0  0  0  0  0  0  0  0  0  0
    5.2000   -0.0089    0.0000 C   0  0  0  0  0  0  0  0  0  0  0  0
    6.0652    0.4924    0.0000 Cl  0  0  0  0  0  0  0  0  0  0  0  0
    5.2044   -1.0140    0.0000 C   0  0  0  0  0  0  0  0  0  0  0  0
    4.3303   -1.5102    0.0000 C   0  0  0  0  0  0  0  0  0  0  0  0
    4.3259   -2.5101    0.0000 Cl  0  0  0  0  0  0  0  0  0  0  0  0
    3.4605   -1.0063    0.0000 C   0  0  0  0  0  0  0  0  0  0  0  0
  1  2  1  0
  2  3  1  0
  2  4  1  0
  2  5  1  0
  5  6  1  0
  6  7  2  0
  6  8  1  0
  8  9  1  0
  9 10  1  0
 10 11  1  0
 11 16  1  0
 11 12  1  0
 12 13  1  0
 13 14  1  0
 14 15  1  0
 15 16  1  0
 15 17  1  0
 17 18  1  0
 18 19  2  0
 18 20  1  0
 20 27  1  0
 20 21  2  0
 21 22  1  0
 22 23  1  0
 22 24  2  0
 24 25  1  0
 25 26  1  0
 25 27  2  0
M  END
>  <SMILES>  (704) 
CC(C)(C)NC(=O)NCCN1CCCC(NC(=O)c2cc(Cl)cc(Cl)c2)C1

>  <CollectionName>  (704) 
chembl

>  <LOG PLASMA PROTEIN BINDING (RAT) (% unbound)>  (704) 
0.592176757396

>  <Internal ID>  (704) 


>  <Source>  (704) 
AstraZeneca

$$$$
CHEMBL2337982
     RDKit          2D

 28 32  0  0  0  0  0  0  0  0999 V2000
    2.5996    2.5129    0.0000 O   0  0  0  0  0  0  0  0  0  0  0  0
    1.7335    3.0129    0.0000 C   0  0  0  0  0  0  0  0  0  0  0  0
    0.8675    2.5129    0.0000 C   0  0  0  0  0  0  0  0  0  0  0  0
    0.8675    1.5129    0.0000 N   0  0  0  0  0  0  0  0  0  0  0  0
    0.0000    1.0052    0.0000 C   0  0  0  0  0  0  0  0  0  0  0  0
    0.0000    0.0000    0.0000 C   0  0  0  0  0  0  0  0  0  0  0  0
    0.8675   -0.4975    0.0000 N   0  0  0  0  0  0  0  0  0  0  0  0
    0.8675   -1.4975    0.0000 C   0  0  0  0  0  0  0  0  0  0  0  0
    0.0015   -1.9975    0.0000 C   0  0  0  0  0  0  0  0  0  0  0  0
    0.0015   -2.9975    0.0000 C   0  0  0  0  0  0  0  0  0  0  0  0
    0.8690   -3.4950    0.0000 C   0  0  0  0  0  0  0  0  0  0  0  0
    0.8690   -4.5002    0.0000 C   0  0  0  0  0  0  0  0  0  0  0  0
    0.0015   -5.0079    0.0000 O   0  0  0  0  0  0  0  0  0  0  0  0
   -0.8660   -4.5002    0.0000 C   0  0  0  0  0  0  0  0  0  0  0  0
   -0.8660   -3.4950    0.0000 C   0  0  0  0  0  0  0  0  0  0  0  0
    1.7350    0.0000    0.0000 C   0  0  0  0  0  0  0  0  0  0  0  0
    1.7350    1.0052    0.0000 C   0  0  0  0  0  0  0  0  0  0  0  0
    1.7335    4.0129    0.0000 N   0  0  0  0  0  0  0  0  0  0  0  0
    2.5996    4.5129    0.0000 C   0  0  0  0  0  0  0  0  0  0  0  0
    3.3816    3.8740    0.0000 C   0  0  0  0  0  0  0  0  0  0  0  0
    4.2794    4.4308    0.0000 C   0  0  0  0  0  0  0  0  0  0  0  0
    5.4921    4.1802    0.0000 C   0  0  0  0  0  0  0  0  0  0  0  0
    4.6834    4.9312    0.0000 C   0  0  0  0  0  0  0  0  0  0  0  0
    4.5004    5.9852    0.0000 C   0  0  0  0  0  0  0  0  0  0  0  0
    3.3547    6.1252    0.0000 C   0  0  0  0  0  0  0  0  0  0  0  0
    4.0797    5.4107    0.0000 C   0  0  0  0  0  0  0  0  0  0  0  0
    2.4280    5.5667    0.0000 C   0  0  0  0  0  0  0  0  0  0  0  0
    3.7248    4.3399    0.0000 C   0  0  0  0  0  0  0  0  0  0  0  0
  1  2  2  0
  2  3  1  0
  3  4  1  0
  4 17  1  0
  4  5  1  0
  5  6  1  0
  6  7  1  0
  7  8  1  0
  8  9  1  0
  9 10  1  0
 10 15  1  0
 10 11  1  0
 11 12  1  0
 12 13  1  0
 13 14  1  0
 14 15  1  0
  7 16  1  0
 16 17  1  0
  2 18  1  0
 18 19  1  0
 19 27  1  0
 19 28  1  0
 19 20  1  0
 20 21  1  0
 21 26  1  0
 21 22  1  0
 22 23  1  0
 23 24  1  0
 24 25  1  0
 25 26  1  0
 25 27  1  0
 23 28  1  0
M  END
>  <SMILES>  (705) 
O=C(CN1CCN(CCC2CCOCC2)CC1)NC12CC3CC(CC(C3)C1)C2

>  <CollectionName>  (705) 
chembl

>  <LOG PLASMA PROTEIN BINDING (RAT) (% unbound)>  (705) 
1.59361830813

>  <Internal ID>  (705) 


>  <Source>  (705) 
AstraZeneca

$$$$
CHEMBL2338404
     RDKit          2D

 31 34  0  0  0  0  0  0  0  0999 V2000
   -3.8090   -2.9975    0.0000 C   0  0  0  0  0  0  0  0  0  0  0  0
   -2.9430   -3.4975    0.0000 C   0  0  0  0  0  0  0  0  0  0  0  0
   -2.4430   -2.6315    0.0000 C   0  0  0  0  0  0  0  0  0  0  0  0
   -3.4430   -4.3635    0.0000 C   0  0  0  0  0  0  0  0  0  0  0  0
   -1.9038   -4.0975    0.0000 C   0  0  0  0  0  0  0  0  0  0  0  0
   -0.8645   -3.4975    0.0000 S   0  0  0  0  0  0  0  0  0  0  0  0
   -1.3645   -2.6315    0.0000 O   0  0  0  0  0  0  0  0  0  0  0  0
   -0.3645   -4.3635    0.0000 O   0  0  0  0  0  0  0  0  0  0  0  0
    0.0015   -2.9975    0.0000 N   0  0  0  0  0  0  0  0  0  0  0  0
    0.0015   -1.9975    0.0000 C   0  0  0  0  0  0  0  0  0  0  0  0
    0.8675   -1.4975    0.0000 C   0  0  0  0  0  0  0  0  0  0  0  0
    0.8675   -0.4975    0.0000 N   0  0  0  0  0  0  0  0  0  0  0  0
    0.0000    0.0000    0.0000 C   0  0  0  0  0  0  0  0  0  0  0  0
    0.0000    1.0052    0.0000 C   0  0  0  0  0  0  0  0  0  0  0  0
    0.8675    1.5129    0.0000 N   0  0  0  0  0  0  0  0  0  0  0  0
    0.8675    2.5129    0.0000 C   0  0  0  0  0  0  0  0  0  0  0  0
    1.7335    3.0129    0.0000 C   0  0  0  0  0  0  0  0  0  0  0  0
    2.5996    2.5129    0.0000 O   0  0  0  0  0  0  0  0  0  0  0  0
    1.7335    4.0129    0.0000 N   0  0  0  0  0  0  0  0  0  0  0  0
    2.5996    4.5129    0.0000 C   0  0  0  0  0  0  0  0  0  0  0  0
    3.3816    3.8740    0.0000 C   0  0  0  0  0  0  0  0  0  0  0  0
    4.2794    4.4308    0.0000 C   0  0  0  0  0  0  0  0  0  0  0  0
    5.4921    4.1802    0.0000 C   0  0  0  0  0  0  0  0  0  0  0  0
    4.6834    4.9312    0.0000 C   0  0  0  0  0  0  0  0  0  0  0  0
    4.5004    5.9852    0.0000 C   0  0  0  0  0  0  0  0  0  0  0  0
    3.3547    6.1252    0.0000 C   0  0  0  0  0  0  0  0  0  0  0  0
    4.0797    5.4107    0.0000 C   0  0  0  0  0  0  0  0  0  0  0  0
    2.4280    5.5667    0.0000 C   0  0  0  0  0  0  0  0  0  0  0  0
    3.7248    4.3399    0.0000 C   0  0  0  0  0  0  0  0  0  0  0  0
    1.7350    1.0052    0.0000 C   0  0  0  0  0  0  0  0  0  0  0  0
    1.7350    0.0000    0.0000 C   0  0  0  0  0  0  0  0  0  0  0  0
  1  2  1  0
  2  3  1  0
  2  4  1  0
  2  5  1  0
  5  6  1  0
  6  7  2  0
  6  8  2  0
  6  9  1  0
  9 10  1  0
 10 11  1  0
 11 12  1  0
 12 31  1  0
 12 13  1  0
 13 14  1  0
 14 15  1  0
 15 16  1  0
 16 17  1  0
 17 18  2  0
 17 19  1  0
 19 20  1  0
 20 28  1  0
 20 29  1  0
 20 21  1  0
 21 22  1  0
 22 27  1  0
 22 23  1  0
 23 24  1  0
 24 25  1  0
 25 26  1  0
 26 27  1  0
 26 28  1  0
 24 29  1  0
 15 30  1  0
 30 31  1  0
M  END
>  <SMILES>  (706) 
CC(C)(C)CS(=O)(=O)NCCN1CCN(CC(=O)NC23CC4CC(CC(C4)C2)C3)CC1

>  <CollectionName>  (706) 
chembl

>  <LOG PLASMA PROTEIN BINDING (RAT) (% unbound)>  (706) 
1.11025291735

>  <Internal ID>  (706) 


>  <Source>  (706) 
AstraZeneca

$$$$
CHEMBL1738797
     RDKit          2D

 36 41  0  0  0  0  0  0  0  0999 V2000
   -1.7278   -1.0188    0.0000 C   0  0  0  0  0  0  0  0  0  0  0  0
   -0.8596   -1.5149    0.0000 C   0  0  0  0  0  0  0  0  0  0  0  0
    0.0042   -1.0111    0.0000 C   0  0  0  0  0  0  0  0  0  0  0  0
    0.8754   -1.5086    0.0000 C   0  0  0  0  0  0  0  0  0  0  0  0
    1.7418   -1.0055    0.0000 C   0  0  0  0  0  0  0  0  0  0  0  0
    2.6102   -1.5042    0.0000 C   0  0  0  0  0  0  0  0  0  0  0  0
    2.6114   -2.5042    0.0000 O   0  0  0  0  0  0  0  0  0  0  0  0
    3.4762   -1.0040    0.0000 C   0  0  0  0  0  0  0  0  0  0  0  0
    3.4792    0.0014    0.0000 C   0  0  0  0  0  0  0  0  0  0  0  0
    4.3407    0.5126    0.0000 N   0  0  0  0  0  0  0  0  0  0  0  0
    5.2154    0.0036    0.0000 C   0  0  0  0  0  0  0  0  0  0  0  0
    6.0808    0.5048    0.0000 C   0  0  0  0  0  0  0  0  0  0  0  0
    6.9498    0.0070    0.0000 C   0  0  0  0  0  0  0  0  0  0  0  0
    6.9528   -1.0022    0.0000 C   0  0  0  0  0  0  0  0  0  0  0  0
    6.0818   -1.5041    0.0000 C   0  0  0  0  0  0  0  0  0  0  0  0
    5.2135   -1.0018    0.0000 C   0  0  0  0  0  0  0  0  0  0  0  0
    7.8142    0.5098    0.0000 C   0  0  0  0  0  0  0  0  0  0  0  0
    8.6787    1.0125    0.0000 N   0  0  0  0  0  0  0  0  0  0  0  0
    2.6115    0.5047    0.0000 C   0  0  0  0  0  0  0  0  0  0  0  0
    1.9687    1.2708    0.0000 C   0  0  0  0  0  0  0  0  0  0  0  0
    3.2551    1.2701    0.0000 C   0  0  0  0  0  0  0  0  0  0  0  0
    1.7424    0.0018    0.0000 C   0  0  0  0  0  0  0  0  0  0  0  0
    0.8719    0.5038    0.0000 C   0  0  0  0  0  0  0  0  0  0  0  0
    0.0000    0.0000    0.0000 C   0  0  0  0  0  0  0  0  0  0  0  0
   -0.8671    0.4980    0.0000 N   0  0  0  0  0  0  0  0  0  0  0  0
   -0.8753    1.5032    0.0000 C   0  0  0  0  0  0  0  0  0  0  0  0
   -1.7470    2.0038    0.0000 C   0  0  0  0  0  0  0  0  0  0  0  0
   -2.6105    1.4993    0.0000 C   0  0  0  0  0  0  0  0  0  0  0  0
   -2.6111    0.4993    0.0000 C   0  0  0  0  0  0  0  0  0  0  0  0
   -1.7395   -0.0013    0.0000 C   0  0  0  0  0  0  0  0  0  0  0  0
   -3.4776    1.9974    0.0000 N   0  0  0  0  0  0  0  0  0  0  0  0
   -4.3411    1.4929    0.0000 C   0  0  0  0  0  0  0  0  0  0  0  0
   -5.2127    1.9935    0.0000 C   0  0  0  0  0  0  0  0  0  0  0  0
   -5.2209    2.9986    0.0000 O   0  0  0  0  0  0  0  0  0  0  0  0
   -4.3486    3.4980    0.0000 C   0  0  0  0  0  0  0  0  0  0  0  0
   -3.4770    2.9974    0.0000 C   0  0  0  0  0  0  0  0  0  0  0  0
  1  2  1  0
  2  3  1  0
  3 24  2  0
  3  4  1  0
  4  5  2  0
  5 22  1  0
  5  6  1  0
  6  7  2  0
  6  8  1  0
  8 16  1  0
  8  9  2  0
  9 10  1  0
 10 11  1  0
 11 16  2  0
 11 12  1  0
 12 13  2  0
 13 14  1  0
 14 15  2  0
 15 16  1  0
 13 17  1  0
 17 18  3  0
  9 19  1  0
 19 20  1  0
 19 21  1  0
 19 22  1  0
 22 23  2  0
 23 24  1  0
 24 25  1  0
 25 30  1  0
 25 26  1  0
 26 27  1  0
 27 28  1  0
 28 29  1  0
 29 30  1  0
 28 31  1  0
 31 36  1  0
 31 32  1  0
 32 33  1  0
 33 34  1  0
 34 35  1  0
 35 36  1  0
M  END
>  <SMILES>  (707) 
CCc1cc2c(cc1N1CCC(N3CCOCC3)CC1)C(C)(C)c1[nH]c3cc(C#N)ccc3c1C2=O

>  <CollectionName>  (707) 
chembl

>  <LOG PLASMA PROTEIN BINDING (RAT) (% unbound)>  (707) 
1.69897000434

>  <Internal ID>  (707) 


>  <Source>  (707) 
AstraZeneca

$$$$
CHEMBL2316386
     RDKit          2D

 38 41  0  0  1  0  0  0  0  0999 V2000
    4.3411   -4.5108    0.0000 C   0  0  0  0  0  0  0  0  0  0  0  0
    5.2064   -4.0096    0.0000 S   0  0  0  0  0  0  0  0  0  0  0  0
    6.0731   -4.5085    0.0000 O   0  0  0  0  0  0  0  0  0  0  0  0
    5.2051   -3.0096    0.0000 C   0  0  0  0  0  0  0  0  0  0  0  0
    4.3384   -2.5108    0.0000 C   0  0  0  0  0  0  0  0  0  0  0  0
    3.4696   -3.0156    0.0000 C   0  0  0  0  0  0  0  0  0  0  0  0
    2.5986   -2.5127    0.0000 C   0  0  0  0  0  0  0  0  0  0  0  0
    2.5966   -1.5050    0.0000 C   0  0  0  0  0  0  0  0  0  0  0  0
    1.7313   -1.0038    0.0000 C   0  0  0  0  0  0  0  0  0  0  0  0
    0.8646   -1.5025    0.0000 O   0  0  0  0  0  0  0  0  0  0  0  0
    1.7328   -0.0038    0.0000 N   0  0  0  0  0  0  0  0  0  0  0  0
    0.8675    0.4975    0.0000 C   0  0  0  0  0  0  0  0  0  0  0  0
    0.0000    0.0000    0.0000 C   0  0  0  0  0  0  0  0  0  0  0  0
   -0.8675    0.4975    0.0000 C   0  0  0  0  0  0  0  0  0  0  0  0
   -0.8675    1.5027    0.0000 C   0  0  0  0  0  0  0  0  0  0  0  0
   -1.7350    2.0001    0.0000 O   0  0  0  0  0  0  0  0  0  0  0  0
   -1.7379    3.0001    0.0000 C   0  0  0  0  0  0  0  0  0  0  0  0
   -2.6054    3.4976    0.0000 C   0  0  0  0  0  0  0  0  0  0  0  0
   -2.6084    4.4976    0.0000 O   0  0  0  0  0  0  0  0  0  0  0  0
   -3.4759    4.9950    0.0000 C   0  0  0  0  0  0  0  0  0  0  0  0
   -3.4788    5.9950    0.0000 C   0  0  0  0  0  0  0  0  0  0  0  0
   -4.3463    6.4925    0.0000 O   0  0  0  0  0  0  0  0  0  0  0  0
   -0.0000    2.0104    0.0000 N   0  0  0  0  0  0  0  0  0  0  0  0
    0.8675    1.5027    0.0000 C   0  0  0  0  0  0  0  0  0  0  0  0
    1.7350    2.0001    0.0000 C   0  0  0  0  0  0  0  0  0  0  0  0
    1.7379    3.0001    0.0000 O   0  0  0  0  0  0  0  0  0  0  0  0
    2.5995    1.4976    0.0000 N   0  0  0  0  0  0  0  0  0  0  0  0
    3.4670    1.9950    0.0000 C   0  0  0  0  0  0  0  0  0  0  0  0
    3.4700    2.9950    0.0000 C   0  0  0  0  0  0  0  0  0  0  0  0
    2.7650    3.7042    0.0000 C   0  0  0  0  0  0  0  0  0  0  0  0
    3.4742    4.4092    0.0000 C   0  0  0  0  0  0  0  0  0  0  0  0
    4.1792    3.7000    0.0000 C   0  0  0  0  0  0  0  0  0  0  0  0
    3.4676   -1.0078    0.0000 C   0  0  0  0  0  0  0  0  0  0  0  0
    3.4605   -0.0023    0.0000 C   0  0  0  0  0  0  0  0  0  0  0  0
    4.3336    0.4965    0.0000 C   0  0  0  0  0  0  0  0  0  0  0  0
    5.2052   -0.0053    0.0000 C   0  0  0  0  0  0  0  0  0  0  0  0
    5.2036   -1.0058    0.0000 C   0  0  0  0  0  0  0  0  0  0  0  0
    4.3385   -1.5108    0.0000 C   0  0  0  0  0  0  0  0  0  0  0  0
  1  2  1  0
  2  3  1  0
  2  4  1  0
  4  5  1  0
  5 38  2  0
  5  6  1  0
  6  7  2  0
  7  8  1  0
  8  9  1  0
  9 10  2  0
  9 11  1  0
 11 12  1  0
 12 24  1  0
 12 13  2  0
 13 14  1  0
 14 15  2  0
 15 16  1  0
 16 17  1  0
 17 18  1  0
 18 19  1  0
 19 20  1  0
 20 21  1  0
 21 22  1  0
 15 23  1  0
 23 24  2  0
 24 25  1  0
 25 26  2  0
 25 27  1  0
 27 28  1  0
 28 29  1  0
 29 32  1  0
 29 30  1  0
 30 31  1  0
 31 32  1  0
  8 33  2  0
 33 38  1  0
 33 34  1  0
 34 35  2  0
 35 36  1  0
 36 37  2  0
 37 38  1  0
M  CHG  2   2   1   3  -1
M  END
>  <SMILES>  (708) 
C[S+]([O-])Cc1ccc(C(=O)Nc2ccc(OCCOCCO)nc2C(=O)NCC2CCC2)c2ccccc12

>  <CollectionName>  (708) 
chembl

>  <LOG PLASMA PROTEIN BINDING (RAT) (% unbound)>  (708) 
0.535294120043

>  <Internal ID>  (708) 


>  <Source>  (708) 
AstraZeneca

$$$$
CHEMBL2325638
     RDKit          2D

 31 34  0  0  0  0  0  0  0  0999 V2000
   -2.3692   -3.2292    0.0000 F   0  0  0  0  0  0  0  0  0  0  0  0
   -1.7768   -2.4236    0.0000 C   0  0  0  0  0  0  0  0  0  0  0  0
   -2.1770   -1.5071    0.0000 C   0  0  0  0  0  0  0  0  0  0  0  0
   -1.5881   -0.6989    0.0000 C   0  0  0  0  0  0  0  0  0  0  0  0
   -1.9922    0.2158    0.0000 O   0  0  0  0  0  0  0  0  0  0  0  0
   -2.9865    0.3231    0.0000 C   0  0  0  0  0  0  0  0  0  0  0  0
   -3.3920    1.2373    0.0000 C   0  0  0  0  0  0  0  0  0  0  0  0
   -4.3857    1.3489    0.0000 C   0  0  0  0  0  0  0  0  0  0  0  0
   -4.7872    2.2648    0.0000 F   0  0  0  0  0  0  0  0  0  0  0  0
   -4.9801    0.5383    0.0000 C   0  0  0  0  0  0  0  0  0  0  0  0
   -4.5806   -0.3841    0.0000 C   0  0  0  0  0  0  0  0  0  0  0  0
   -3.5808   -0.4875    0.0000 C   0  0  0  0  0  0  0  0  0  0  0  0
   -3.1753   -1.4016    0.0000 F   0  0  0  0  0  0  0  0  0  0  0  0
   -5.9738    0.6500    0.0000 S   0  0  0  0  0  0  0  0  0  0  0  0
   -6.0855   -0.3438    0.0000 O   0  0  0  0  0  0  0  0  0  0  0  0
   -5.8621    1.6437    0.0000 O   0  0  0  0  0  0  0  0  0  0  0  0
   -6.9675    0.7617    0.0000 N   0  0  0  0  0  0  0  0  0  0  0  0
   -7.3677    1.6781    0.0000 C   0  0  0  0  0  0  0  0  0  0  0  0
   -6.8588    2.5389    0.0000 N   0  0  0  0  0  0  0  0  0  0  0  0
   -7.5233    3.2883    0.0000 C   0  0  0  0  0  0  0  0  0  0  0  0
   -8.4423    2.8901    0.0000 N   0  0  0  0  0  0  0  0  0  0  0  0
   -8.3453    1.8902    0.0000 S   0  0  0  0  0  0  0  0  0  0  0  0
   -0.5889   -0.8082    0.0000 C   0  0  0  0  0  0  0  0  0  0  0  0
   -0.1785   -1.7258    0.0000 C   0  0  0  0  0  0  0  0  0  0  0  0
   -0.7776   -2.5329    0.0000 C   0  0  0  0  0  0  0  0  0  0  0  0
   -0.3775   -3.4494    0.0000 Cl  0  0  0  0  0  0  0  0  0  0  0  0
    0.0000    0.0000    0.0000 C   0  0  0  0  0  0  0  0  0  0  0  0
   -0.3065    0.9519    0.0000 C   0  0  0  0  0  0  0  0  0  0  0  0
    0.5008    1.5428    0.0000 N   0  0  0  0  0  0  0  0  0  0  0  0
    1.3133    0.9519    0.0000 N   0  0  0  0  0  0  0  0  0  0  0  0
    1.0015    0.0000    0.0000 C   0  0  0  0  0  0  0  0  0  0  0  0
  1  2  1  0
  2 25  2  0
  2  3  1  0
  3  4  2  0
  4  5  1  0
  5  6  1  0
  6 12  1  0
  6  7  2  0
  7  8  1  0
  8  9  1  0
  8 10  2  0
 10 11  1  0
 11 12  2  0
 12 13  1  0
 10 14  1  0
 14 15  2  0
 14 16  2  0
 14 17  1  0
 17 18  1  0
 18 22  1  0
 18 19  2  0
 19 20  1  0
 20 21  2  0
 21 22  1  0
  4 23  1  0
 23 24  2  0
 24 25  1  0
 25 26  1  0
 23 27  1  0
 27 31  2  0
 27 28  1  0
 28 29  2  0
 29 30  1  0
 30 31  1  0
M  END
>  <SMILES>  (709) 
O=S(=O)(Nc1ncns1)c1cc(F)c(Oc2cc(F)c(Cl)cc2-c2cn[nH]c2)cc1F

>  <CollectionName>  (709) 
chembl

>  <LOG PLASMA PROTEIN BINDING (RAT) (% unbound)>  (709) 
-0.698970004336

>  <Internal ID>  (709) 


>  <Source>  (709) 
AstraZeneca

$$$$
CHEMBL573
     RDKit          2D

  9  9  0  0  0  0  0  0  0  0999 V2000
    2.5995    0.4950    0.0000 O   0  0  0  0  0  0  0  0  0  0  0  0
    1.7328   -0.0038    0.0000 C   0  0  0  0  0  0  0  0  0  0  0  0
    1.7313   -1.0038    0.0000 O   0  0  0  0  0  0  0  0  0  0  0  0
    0.8675    0.4975    0.0000 C   0  0  0  0  0  0  0  0  0  0  0  0
    0.0000    0.0000    0.0000 C   0  0  0  0  0  0  0  0  0  0  0  0
   -0.8675    0.4975    0.0000 C   0  0  0  0  0  0  0  0  0  0  0  0
   -0.8675    1.5027    0.0000 C   0  0  0  0  0  0  0  0  0  0  0  0
   -0.0000    2.0104    0.0000 N   0  0  0  0  0  0  0  0  0  0  0  0
    0.8675    1.5027    0.0000 C   0  0  0  0  0  0  0  0  0  0  0  0
  1  2  1  0
  2  3  2  0
  2  4  1  0
  4  9  2  0
  4  5  1  0
  5  6  2  0
  6  7  1  0
  7  8  2  0
  8  9  1  0
M  END
>  <SMILES>  (710) 
O=C(O)c1cccnc1

>  <CollectionName>  (710) 
chembl

>  <LOG PLASMA PROTEIN BINDING (RAT) (% unbound)>  (710) 
1.73711309431

>  <Internal ID>  (710) 


>  <Source>  (710) 
AstraZeneca

$$$$
CHEMBL456390
     RDKit          2D

 21 24  0  0  0  0  0  0  0  0999 V2000
    1.6860   -6.0176    0.0000 O   0  0  0  0  0  0  0  0  0  0  0  0
    1.6984   -5.0177    0.0000 C   0  0  0  0  0  0  0  0  0  0  0  0
    0.8306   -4.5035    0.0000 C   0  0  0  0  0  0  0  0  0  0  0  0
    0.8447   -3.4954    0.0000 C   0  0  0  0  0  0  0  0  0  0  0  0
    1.7192   -3.0035    0.0000 C   0  0  0  0  0  0  0  0  0  0  0  0
    1.7270   -2.0036    0.0000 C   0  0  0  0  0  0  0  0  0  0  0  0
    2.5983   -1.5053    0.0000 C   0  0  0  0  0  0  0  0  0  0  0  0
    3.4685   -2.0159    0.0000 C   0  0  0  0  0  0  0  0  0  0  0  0
    3.4674   -3.0247    0.0000 C   0  0  0  0  0  0  0  0  0  0  0  0
    2.5872   -3.5178    0.0000 C   0  0  0  0  0  0  0  0  0  0  0  0
    2.5807   -4.5240    0.0000 N   0  0  0  0  0  0  0  0  0  0  0  0
    2.6039   -0.5053    0.0000 C   0  0  0  0  0  0  0  0  0  0  0  0
    3.4805   -0.0073    0.0000 C   0  0  0  0  0  0  0  0  0  0  0  0
    3.4848    1.0014    0.0000 N   0  0  0  0  0  0  0  0  0  0  0  0
    2.6125    1.5125    0.0000 C   0  0  0  0  0  0  0  0  0  0  0  0
    1.7414    1.0089    0.0000 C   0  0  0  0  0  0  0  0  0  0  0  0
    0.8707    1.5185    0.0000 C   0  0  0  0  0  0  0  0  0  0  0  0
    0.0000    1.0089    0.0000 C   0  0  0  0  0  0  0  0  0  0  0  0
    0.0000    0.0000    0.0000 C   0  0  0  0  0  0  0  0  0  0  0  0
    0.8707   -0.4993    0.0000 C   0  0  0  0  0  0  0  0  0  0  0  0
    1.7371    0.0000    0.0000 C   0  0  0  0  0  0  0  0  0  0  0  0
  1  2  2  0
  2 11  1  0
  2  3  1  0
  3  4  1  0
  4  5  1  0
  5 10  2  0
  5  6  1  0
  6  7  2  0
  7  8  1  0
  8  9  2  0
  9 10  1  0
 10 11  1  0
  7 12  1  0
 12 21  1  0
 12 13  2  0
 13 14  1  0
 14 15  2  0
 15 16  1  0
 16 21  2  0
 16 17  1  0
 17 18  2  0
 18 19  1  0
 19 20  2  0
 20 21  1  0
M  END
>  <SMILES>  (711) 
O=C1CCc2cc(-c3cncc4ccccc34)ccc2N1

>  <CollectionName>  (711) 
chembl

>  <LOG PLASMA PROTEIN BINDING (RAT) (% unbound)>  (711) 
0.495544337546

>  <Internal ID>  (711) 


>  <Source>  (711) 
AstraZeneca

$$$$
CHEMBL457393
     RDKit          2D

 26 29  0  0  1  0  0  0  0  0999 V2000
    2.5995    1.4976    0.0000 C   0  0  0  0  0  0  0  0  0  0  0  0
    1.7350    2.0001    0.0000 C   0  0  0  0  0  0  0  0  0  0  0  0
    1.7379    3.0001    0.0000 N   0  0  0  0  0  0  0  0  0  0  0  0
    2.6054    3.4976    0.0000 C   0  0  0  0  0  0  0  0  0  0  0  0
    3.4729    2.9899    0.0000 N   0  0  0  0  0  0  0  0  0  0  0  0
    4.3404    3.4976    0.0000 C   0  0  0  0  0  0  0  0  0  0  0  0
    4.3404    4.5028    0.0000 C   0  0  0  0  0  0  0  0  0  0  0  0
    5.2057    5.0040    0.0000 F   0  0  0  0  0  0  0  0  0  0  0  0
    3.4729    5.0003    0.0000 C   0  0  0  0  0  0  0  0  0  0  0  0
    3.4729    6.0003    0.0000 N   0  0  0  0  0  0  0  0  0  0  0  0
    4.3390    6.5003    0.0000 C   0  0  0  0  0  0  0  0  0  0  0  0
    5.2513    6.0907    0.0000 C   0  0  0  0  0  0  0  0  0  0  0  0
    5.9217    6.8347    0.0000 C   0  0  0  0  0  0  0  0  0  0  0  0
    5.4234    7.7036    0.0000 N   0  0  0  0  0  0  0  0  0  0  0  0
    4.4405    7.4956    0.0000 N   0  0  0  0  0  0  0  0  0  0  0  0
    6.9161    6.7285    0.0000 C   0  0  0  0  0  0  0  0  0  0  0  0
    7.7263    6.1392    0.0000 C   0  0  0  0  0  0  0  0  0  0  0  0
    7.8325    7.1335    0.0000 C   0  0  0  0  0  0  0  0  0  0  0  0
    2.6054    4.5028    0.0000 N   0  0  0  0  0  0  0  0  0  0  0  0
    0.8675    1.5027    0.0000 C   0  0  0  0  0  0  0  0  0  0  0  0
    0.8675    0.4975    0.0000 C   0  0  0  0  0  0  0  0  0  0  0  0
    0.0000    0.0000    0.0000 C   0  0  0  0  0  0  0  0  0  0  0  0
   -0.8675    0.4975    0.0000 C   0  0  0  0  0  0  0  0  0  0  0  0
   -1.7328   -0.0038    0.0000 F   0  0  0  0  0  0  0  0  0  0  0  0
   -0.8675    1.5027    0.0000 C   0  0  0  0  0  0  0  0  0  0  0  0
    0.0000    2.0104    0.0000 N   0  0  0  0  0  0  0  0  0  0  0  0
  2  1  1  1
  2  3  1  0
  3  4  1  0
  4 19  1  0
  4  5  2  0
  5  6  1  0
  6  7  2  0
  7  8  1  0
  7  9  1  0
  9 10  1  0
 10 11  1  0
 11 15  2  0
 11 12  1  0
 12 13  2  0
 13 14  1  0
 14 15  1  0
 13 16  1  0
 16 18  1  0
 16 17  1  0
 17 18  1  0
  9 19  2  0
  2 20  1  0
 20 26  1  0
 20 21  2  0
 21 22  1  0
 22 23  2  0
 23 24  1  0
 23 25  1  0
 25 26  2  0
M  END
>  <SMILES>  (712) 
C[C@H](Nc1ncc(F)c(Nc2cc(C3CC3)[nH]n2)n1)c1ccc(F)cn1

>  <CollectionName>  (712) 
chembl

>  <LOG PLASMA PROTEIN BINDING (RAT) (% unbound)>  (712) 
0.54406804435

>  <Internal ID>  (712) 


>  <Source>  (712) 
AstraZeneca

$$$$
CHEMBL558
     RDKit          2D

 13 13  0  0  1  0  0  0  0  0999 V2000
   -1.7321    5.0104    0.0000 C   0  0  0  0  0  0  0  0  0  0  0  0
   -0.8660    4.5104    0.0000 C   0  0  0  0  0  0  0  0  0  0  0  0
   -0.0000    5.0104    0.0000 N   0  0  0  0  0  0  0  0  0  0  0  0
   -0.8660    3.5104    0.0000 C   0  0  0  0  0  0  0  0  0  0  0  0
   -0.0000    3.0104    0.0000 O   0  0  0  0  0  0  0  0  0  0  0  0
   -0.0000    2.0104    0.0000 C   0  0  0  0  0  0  0  0  0  0  0  0
   -0.8675    1.5027    0.0000 C   0  0  0  0  0  0  0  0  0  0  0  0
   -1.7350    2.0001    0.0000 C   0  0  0  0  0  0  0  0  0  0  0  0
   -0.8675    0.4975    0.0000 C   0  0  0  0  0  0  0  0  0  0  0  0
    0.0000    0.0000    0.0000 C   0  0  0  0  0  0  0  0  0  0  0  0
    0.8675    0.4975    0.0000 C   0  0  0  0  0  0  0  0  0  0  0  0
    0.8675    1.5027    0.0000 C   0  0  0  0  0  0  0  0  0  0  0  0
    1.7350    2.0001    0.0000 C   0  0  0  0  0  0  0  0  0  0  0  0
  1  2  1  0
  2  3  1  0
  2  4  1  0
  4  5  1  0
  5  6  1  0
  6 12  2  0
  6  7  1  0
  7  8  1  0
  7  9  2  0
  9 10  1  0
 10 11  2  0
 11 12  1  0
 12 13  1  0
M  END
>  <SMILES>  (713) 
Cc1cccc(C)c1OCC(C)N

>  <CollectionName>  (713) 
chembl

>  <LOG PLASMA PROTEIN BINDING (RAT) (% unbound)>  (713) 
1.80256849831

>  <Internal ID>  (713) 


>  <Source>  (713) 
AstraZeneca

$$$$
CHEMBL1668935
     RDKit          2D

 24 27  0  0  0  0  0  0  0  0999 V2000
   -0.0000    4.0104    0.0000 C   0  0  0  0  0  0  0  0  0  0  0  0
   -0.0000    3.0104    0.0000 S   0  0  0  0  0  0  0  0  0  0  0  0
    1.0000    3.0104    0.0000 O   0  0  0  0  0  0  0  0  0  0  0  0
   -1.0000    3.0104    0.0000 O   0  0  0  0  0  0  0  0  0  0  0  0
   -0.0000    2.0104    0.0000 N   0  0  0  0  0  0  0  0  0  0  0  0
   -0.8675    1.5027    0.0000 C   0  0  0  0  0  0  0  0  0  0  0  0
   -0.8675    0.4975    0.0000 C   0  0  0  0  0  0  0  0  0  0  0  0
    0.0000    0.0000    0.0000 C   0  0  0  0  0  0  0  0  0  0  0  0
    0.8675    0.4975    0.0000 C   0  0  0  0  0  0  0  0  0  0  0  0
    0.8675    1.5027    0.0000 C   0  0  0  0  0  0  0  0  0  0  0  0
    0.0000   -1.0000    0.0000 N   0  0  0  0  0  0  0  0  0  0  0  0
   -0.8660   -1.5000    0.0000 C   0  0  0  0  0  0  0  0  0  0  0  0
   -1.7321   -1.0000    0.0000 O   0  0  0  0  0  0  0  0  0  0  0  0
   -0.8660   -2.5000    0.0000 N   0  0  0  0  0  0  0  0  0  0  0  0
   -1.7321   -3.0000    0.0000 C   0  0  0  0  0  0  0  0  0  0  0  0
   -2.5141   -2.3611    0.0000 C   0  0  0  0  0  0  0  0  0  0  0  0
   -3.4119   -2.9179    0.0000 C   0  0  0  0  0  0  0  0  0  0  0  0
   -4.6246   -2.6673    0.0000 C   0  0  0  0  0  0  0  0  0  0  0  0
   -3.8159   -3.4183    0.0000 C   0  0  0  0  0  0  0  0  0  0  0  0
   -3.6329   -4.4723    0.0000 C   0  0  0  0  0  0  0  0  0  0  0  0
   -2.4872   -4.6123    0.0000 C   0  0  0  0  0  0  0  0  0  0  0  0
   -3.2122   -3.8978    0.0000 C   0  0  0  0  0  0  0  0  0  0  0  0
   -1.5605   -4.0538    0.0000 C   0  0  0  0  0  0  0  0  0  0  0  0
   -2.8573   -2.8270    0.0000 C   0  0  0  0  0  0  0  0  0  0  0  0
  1  2  1  0
  2  3  2  0
  2  4  2  0
  2  5  1  0
  5 10  1  0
  5  6  1  0
  6  7  1  0
  7  8  1  0
  8  9  1  0
  9 10  1  0
  8 11  1  0
 11 12  1  0
 12 13  2  0
 12 14  1  0
 14 15  1  0
 15 23  1  0
 15 24  1  0
 15 16  1  0
 16 17  1  0
 17 22  1  0
 17 18  1  0
 18 19  1  0
 19 20  1  0
 20 21  1  0
 21 22  1  0
 21 23  1  0
 19 24  1  0
M  END
>  <SMILES>  (714) 
CS(=O)(=O)N1CCC(NC(=O)NC23CC4CC(CC(C4)C2)C3)CC1

>  <CollectionName>  (714) 
chembl

>  <LOG PLASMA PROTEIN BINDING (RAT) (% unbound)>  (714) 
1.41813549843

>  <Internal ID>  (714) 


>  <Source>  (714) 
AstraZeneca

$$$$
CHEMBL1684954
     RDKit          2D

 27 29  0  0  1  0  0  0  0  0999 V2000
    2.5995    1.4976    0.0000 C   0  0  0  0  0  0  0  0  0  0  0  0
    1.7350    2.0001    0.0000 C   0  0  0  0  0  0  0  0  0  0  0  0
    1.7379    3.0001    0.0000 N   0  0  0  0  0  0  0  0  0  0  0  0
    2.6054    3.4976    0.0000 C   0  0  0  0  0  0  0  0  0  0  0  0
    3.4700    2.9950    0.0000 O   0  0  0  0  0  0  0  0  0  0  0  0
    2.6084    4.4976    0.0000 C   0  0  0  0  0  0  0  0  0  0  0  0
    3.4759    4.9950    0.0000 C   0  0  0  0  0  0  0  0  0  0  0  0
    4.3412    4.4937    0.0000 C   0  0  0  0  0  0  0  0  0  0  0  0
    5.2109    4.9874    0.0000 C   0  0  0  0  0  0  0  0  0  0  0  0
    5.2153    5.9926    0.0000 C   0  0  0  0  0  0  0  0  0  0  0  0
    4.3500    6.5041    0.0000 C   0  0  0  0  0  0  0  0  0  0  0  0
    3.4803    6.0002    0.0000 C   0  0  0  0  0  0  0  0  0  0  0  0
    6.0850    6.4862    0.0000 C   0  0  0  0  0  0  0  0  0  0  0  0
    7.0868    6.4799    0.0000 C   0  0  0  0  0  0  0  0  0  0  0  0
    6.5932    7.3496    0.0000 C   0  0  0  0  0  0  0  0  0  0  0  0
    0.8675    1.5027    0.0000 C   0  0  0  0  0  0  0  0  0  0  0  0
    0.8675    0.4975    0.0000 C   0  0  0  0  0  0  0  0  0  0  0  0
    0.0000    0.0000    0.0000 C   0  0  0  0  0  0  0  0  0  0  0  0
   -0.8675    0.4975    0.0000 C   0  0  0  0  0  0  0  0  0  0  0  0
   -1.7328   -0.0038    0.0000 O   0  0  0  0  0  0  0  0  0  0  0  0
   -1.7313   -1.0038    0.0000 C   0  0  0  0  0  0  0  0  0  0  0  0
   -2.5966   -1.5050    0.0000 C   0  0  0  0  0  0  0  0  0  0  0  0
   -2.0954   -2.3703    0.0000 F   0  0  0  0  0  0  0  0  0  0  0  0
   -3.0979   -0.6397    0.0000 F   0  0  0  0  0  0  0  0  0  0  0  0
   -3.4619   -2.0063    0.0000 F   0  0  0  0  0  0  0  0  0  0  0  0
   -0.8675    1.5027    0.0000 C   0  0  0  0  0  0  0  0  0  0  0  0
    0.0000    2.0104    0.0000 N   0  0  0  0  0  0  0  0  0  0  0  0
  2  1  1  6
  2  3  1  0
  3  4  1  0
  4  5  2  0
  4  6  1  0
  6  7  1  0
  7 12  1  0
  7  8  2  0
  8  9  1  0
  9 10  2  0
 10 11  1  0
 11 12  2  0
 10 13  1  0
 13 15  1  0
 13 14  1  0
 14 15  1  0
  2 16  1  0
 16 27  1  0
 16 17  2  0
 17 18  1  0
 18 19  2  0
 19 20  1  0
 20 21  1  0
 21 22  1  0
 22 23  1  0
 22 24  1  0
 22 25  1  0
 19 26  1  0
 26 27  2  0
M  END
>  <SMILES>  (715) 
C[C@@H](NC(=O)Cc1ccc(C2CC2)cc1)c1ccc(OCC(F)(F)F)cn1

>  <CollectionName>  (715) 
chembl

>  <LOG PLASMA PROTEIN BINDING (RAT) (% unbound)>  (715) 
-0.356547323514

>  <Internal ID>  (715) 


>  <Source>  (715) 
AstraZeneca

$$$$
CHEMBL1689109
     RDKit          2D

 28 30  0  0  0  0  0  0  0  0999 V2000
    3.4685   -2.9975    0.0000 O   0  0  0  0  0  0  0  0  0  0  0  0
    2.6033   -3.4988    0.0000 C   0  0  0  0  0  0  0  0  0  0  0  0
    2.6048   -4.4988    0.0000 O   0  0  0  0  0  0  0  0  0  0  0  0
    1.7365   -3.0001    0.0000 C   0  0  0  0  0  0  0  0  0  0  0  0
    0.8712   -3.5014    0.0000 O   0  0  0  0  0  0  0  0  0  0  0  0
    0.0044   -3.0027    0.0000 C   0  0  0  0  0  0  0  0  0  0  0  0
   -0.8616   -3.5028    0.0000 C   0  0  0  0  0  0  0  0  0  0  0  0
   -1.7306   -3.0078    0.0000 C   0  0  0  0  0  0  0  0  0  0  0  0
   -1.7335   -2.0026    0.0000 C   0  0  0  0  0  0  0  0  0  0  0  0
   -2.6025   -1.5077    0.0000 Cl  0  0  0  0  0  0  0  0  0  0  0  0
   -0.8675   -1.4924    0.0000 C   0  0  0  0  0  0  0  0  0  0  0  0
    0.0015   -1.9975    0.0000 C   0  0  0  0  0  0  0  0  0  0  0  0
    0.8675   -1.4975    0.0000 C   0  0  0  0  0  0  0  0  0  0  0  0
    0.8675   -0.4975    0.0000 N   0  0  0  0  0  0  0  0  0  0  0  0
    0.0000    0.0000    0.0000 C   0  0  0  0  0  0  0  0  0  0  0  0
    0.0000    1.0052    0.0000 C   0  0  0  0  0  0  0  0  0  0  0  0
    0.8675    1.5129    0.0000 N   0  0  0  0  0  0  0  0  0  0  0  0
    1.7350    1.0052    0.0000 C   0  0  0  0  0  0  0  0  0  0  0  0
    1.7350    0.0000    0.0000 C   0  0  0  0  0  0  0  0  0  0  0  0
    0.8675    2.5129    0.0000 S   0  0  0  0  0  0  0  0  0  0  0  0
    1.8675    2.5129    0.0000 O   0  0  0  0  0  0  0  0  0  0  0  0
   -0.1325    2.5129    0.0000 O   0  0  0  0  0  0  0  0  0  0  0  0
    0.8675    3.5129    0.0000 C   0  0  0  0  0  0  0  0  0  0  0  0
   -0.0045    4.0129    0.0000 C   0  0  0  0  0  0  0  0  0  0  0  0
   -0.0046    5.0130    0.0000 C   0  0  0  0  0  0  0  0  0  0  0  0
    0.8586    5.5180    0.0000 C   0  0  0  0  0  0  0  0  0  0  0  0
    1.7306    5.0180    0.0000 C   0  0  0  0  0  0  0  0  0  0  0  0
    1.7395    4.0129    0.0000 C   0  0  0  0  0  0  0  0  0  0  0  0
  1  2  1  0
  2  3  2  0
  2  4  1  0
  4  5  1  0
  5  6  1  0
  6 12  2  0
  6  7  1  0
  7  8  2  0
  8  9  1  0
  9 10  1  0
  9 11  2  0
 11 12  1  0
 12 13  1  0
 13 14  1  0
 14 19  1  0
 14 15  1  0
 15 16  1  0
 16 17  1  0
 17 18  1  0
 18 19  1  0
 17 20  1  0
 20 21  2  0
 20 22  2  0
 20 23  1  0
 23 28  1  0
 23 24  2  0
 24 25  1  0
 25 26  2  0
 26 27  1  0
 27 28  2  0
M  END
>  <SMILES>  (716) 
O=C(O)COc1ccc(Cl)cc1CN1CCN(S(=O)(=O)c2ccccc2)CC1

>  <CollectionName>  (716) 
chembl

>  <LOG PLASMA PROTEIN BINDING (RAT) (% unbound)>  (716) 
1.11892575283

>  <Internal ID>  (716) 


>  <Source>  (716) 
AstraZeneca

$$$$
CHEMBL1144
     RDKit          2D

 30 31  0  0  1  0  0  0  0  0999 V2000
   -4.3376    4.5056    0.0000 C   0  0  0  0  0  0  0  0  0  0  0  0
   -4.3376    3.5056    0.0000 C   0  0  0  0  0  0  0  0  0  0  0  0
   -3.4716    3.0056    0.0000 C   0  0  0  0  0  0  0  0  0  0  0  0
   -2.6056    3.5056    0.0000 C   0  0  0  0  0  0  0  0  0  0  0  0
   -3.4716    2.0056    0.0000 C   0  0  0  0  0  0  0  0  0  0  0  0
   -4.3377    1.5056    0.0000 O   0  0  0  0  0  0  0  0  0  0  0  0
   -2.6056    1.5056    0.0000 O   0  0  0  0  0  0  0  0  0  0  0  0
   -2.6056    0.5056    0.0000 C   0  0  0  0  0  0  0  0  0  0  0  0
   -3.4735   -0.0022    0.0000 C   0  0  0  0  0  0  0  0  0  0  0  0
   -3.4735   -1.0079    0.0000 C   0  0  0  0  0  0  0  0  0  0  0  0
   -4.3388   -1.5091    0.0000 O   0  0  0  0  0  0  0  0  0  0  0  0
   -2.6056   -1.5057    0.0000 C   0  0  0  0  0  0  0  0  0  0  0  0
   -1.7364   -1.0079    0.0000 C   0  0  0  0  0  0  0  0  0  0  0  0
   -0.8697   -1.5068    0.0000 C   0  0  0  0  0  0  0  0  0  0  0  0
    0.0013   -1.0057    0.0000 C   0  0  0  0  0  0  0  0  0  0  0  0
    0.0000    0.0000    0.0000 C   0  0  0  0  0  0  0  0  0  0  0  0
    0.8659    0.5002    0.0000 C   0  0  0  0  0  0  0  0  0  0  0  0
   -0.8723    0.5045    0.0000 C   0  0  0  0  0  0  0  0  0  0  0  0
   -0.8750    1.5045    0.0000 C   0  0  0  0  0  0  0  0  0  0  0  0
   -0.0103    2.0068    0.0000 C   0  0  0  0  0  0  0  0  0  0  0  0
   -0.0130    3.0068    0.0000 C   0  0  0  0  0  0  0  0  0  0  0  0
   -0.8803    3.5045    0.0000 O   0  0  0  0  0  0  0  0  0  0  0  0
    0.8517    3.5091    0.0000 C   0  0  0  0  0  0  0  0  0  0  0  0
    0.8491    4.5091    0.0000 C   0  0  0  0  0  0  0  0  0  0  0  0
   -0.0183    5.0068    0.0000 O   0  0  0  0  0  0  0  0  0  0  0  0
    1.7137    5.0114    0.0000 C   0  0  0  0  0  0  0  0  0  0  0  0
    1.7111    6.0114    0.0000 C   0  0  0  0  0  0  0  0  0  0  0  0
    0.8437    6.5091    0.0000 O   0  0  0  0  0  0  0  0  0  0  0  0
    2.5758    6.5137    0.0000 O   0  0  0  0  0  0  0  0  0  0  0  0
   -1.7377   -0.0022    0.0000 C   0  0  0  0  0  0  0  0  0  0  0  0
  1  2  1  0
  2  3  1  0
  3  4  1  6
  3  5  1  0
  5  6  2  0
  5  7  1  0
  8  7  1  6
  8 30  1  0
  8  9  1  0
  9 10  1  0
 10 11  1  1
 10 12  1  0
 12 13  2  0
 30 13  1  6
 13 14  1  0
 14 15  2  0
 15 16  1  0
 16 17  1  1
 16 18  1  0
 18 19  1  1
 19 20  1  0
 20 21  1  0
 21 22  1  1
 21 23  1  0
 23 24  1  0
 24 25  1  1
 24 26  1  0
 26 27  1  0
 27 28  2  0
 27 29  1  0
 18 30  1  0
M  END
>  <SMILES>  (717) 
CC[C@H](C)C(=O)O[C@H]1C[C@H](O)C=C2C=C[C@H](C)[C@H](CC[C@@H](O)C[C@@H](O)CC(=O)O)[C@H]21

>  <CollectionName>  (717) 
chembl

>  <LOG PLASMA PROTEIN BINDING (RAT) (% unbound)>  (717) 
1.54332290065

>  <Internal ID>  (717) 


>  <Source>  (717) 
AstraZeneca

$$$$
CHEMBL49247
     RDKit          2D

 25 29  0  0  0  0  0  0  0  0999 V2000
    3.4744   -3.0088    0.0000 C   0  0  0  0  0  0  0  0  0  0  0  0
    3.4731   -2.0031    0.0000 C   0  0  0  0  0  0  0  0  0  0  0  0
    2.6008   -1.4986    0.0000 O   0  0  0  0  0  0  0  0  0  0  0  0
    1.7354   -2.0053    0.0000 C   0  0  0  0  0  0  0  0  0  0  0  0
    1.7367   -3.0110    0.0000 C   0  0  0  0  0  0  0  0  0  0  0  0
    2.6034   -3.5099    0.0000 O   0  0  0  0  0  0  0  0  0  0  0  0
    0.8675   -3.5088    0.0000 C   0  0  0  0  0  0  0  0  0  0  0  0
   -0.0004   -3.0110    0.0000 C   0  0  0  0  0  0  0  0  0  0  0  0
   -0.0004   -2.0053    0.0000 C   0  0  0  0  0  0  0  0  0  0  0  0
    0.8675   -1.4975    0.0000 C   0  0  0  0  0  0  0  0  0  0  0  0
    0.8675   -0.4975    0.0000 N   0  0  0  0  0  0  0  0  0  0  0  0
    0.0000    0.0000    0.0000 C   0  0  0  0  0  0  0  0  0  0  0  0
    0.0000    1.0052    0.0000 C   0  0  0  0  0  0  0  0  0  0  0  0
    0.8675    1.5129    0.0000 N   0  0  0  0  0  0  0  0  0  0  0  0
    1.7350    1.0052    0.0000 C   0  0  0  0  0  0  0  0  0  0  0  0
    1.7350    0.0000    0.0000 C   0  0  0  0  0  0  0  0  0  0  0  0
    0.8675    2.5129    0.0000 C   0  0  0  0  0  0  0  0  0  0  0  0
    1.6821    3.1049    0.0000 C   0  0  0  0  0  0  0  0  0  0  0  0
    1.3712    4.0627    0.0000 C   0  0  0  0  0  0  0  0  0  0  0  0
    1.8791    4.9306    0.0000 C   0  0  0  0  0  0  0  0  0  0  0  0
    1.3713    5.7987    0.0000 C   0  0  0  0  0  0  0  0  0  0  0  0
    0.3655    5.7987    0.0000 C   0  0  0  0  0  0  0  0  0  0  0  0
   -0.1325    4.9308    0.0000 C   0  0  0  0  0  0  0  0  0  0  0  0
    0.3641    4.0627    0.0000 C   0  0  0  0  0  0  0  0  0  0  0  0
    0.0527    3.1049    0.0000 C   0  0  0  0  0  0  0  0  0  0  0  0
  1  6  1  0
  1  2  1  0
  2  3  1  0
  3  4  1  0
  4 10  2  0
  4  5  1  0
  5  6  1  0
  5  7  2  0
  7  8  1  0
  8  9  2  0
  9 10  1  0
 10 11  1  0
 11 16  1  0
 11 12  1  0
 12 13  1  0
 13 14  1  0
 14 15  1  0
 15 16  1  0
 14 17  1  0
 17 25  1  0
 17 18  1  0
 18 19  1  0
 19 24  2  0
 19 20  1  0
 20 21  2  0
 21 22  1  0
 22 23  2  0
 23 24  1  0
 24 25  1  0
M  END
>  <SMILES>  (718) 
c1ccc2c(c1)CC(N1CCN(c3cccc4c3OCCO4)CC1)C2

>  <CollectionName>  (718) 
chembl

>  <LOG PLASMA PROTEIN BINDING (RAT) (% unbound)>  (718) 
0.631443769013

>  <Internal ID>  (718) 


>  <Source>  (718) 
AstraZeneca

$$$$
CHEMBL1059
     RDKit          2D

 11 10  0  0  1  0  0  0  0  0999 V2000
    0.0000    0.0000    0.0000 C   0  0  0  0  0  0  0  0  0  0  0  0
    1.0000    0.0000    0.0000 C   0  0  0  0  0  0  0  0  0  0  0  0
    1.5000    0.8660    0.0000 C   0  0  0  0  0  0  0  0  0  0  0  0
    1.5000   -0.8660    0.0000 C   0  0  0  0  0  0  0  0  0  0  0  0
    2.5000   -0.8660    0.0000 C   0  0  0  0  0  0  0  0  0  0  0  0
    3.0000    0.0000    0.0000 C   0  0  0  0  0  0  0  0  0  0  0  0
    4.0000    0.0000    0.0000 N   0  0  0  0  0  0  0  0  0  0  0  0
    3.0000   -1.7321    0.0000 C   0  0  0  0  0  0  0  0  0  0  0  0
    2.5000   -2.5981    0.0000 C   0  0  0  0  0  0  0  0  0  0  0  0
    1.5000   -2.5981    0.0000 O   0  0  0  0  0  0  0  0  0  0  0  0
    3.0000   -3.4641    0.0000 O   0  0  0  0  0  0  0  0  0  0  0  0
  1  2  1  0
  2  3  1  0
  2  4  1  0
  5  4  1  6
  5  6  1  0
  6  7  1  0
  5  8  1  0
  8  9  1  0
  9 10  2  0
  9 11  1  0
M  END
>  <SMILES>  (719) 
CC(C)C[C@H](CN)CC(=O)O

>  <CollectionName>  (719) 
chembl

>  <LOG PLASMA PROTEIN BINDING (RAT) (% unbound)>  (719) 
1.69897000434

>  <Internal ID>  (719) 


>  <Source>  (719) 
AstraZeneca

$$$$
CHEMBL1071
     RDKit          2D

 22 24  0  0  0  0  0  0  0  0999 V2000
    4.7007    0.2268    0.0000 O   0  0  0  0  0  0  0  0  0  0  0  0
    3.9585    0.8970    0.0000 C   0  0  0  0  0  0  0  0  0  0  0  0
    4.1678    1.8749    0.0000 O   0  0  0  0  0  0  0  0  0  0  0  0
    3.0070    0.5894    0.0000 C   0  0  0  0  0  0  0  0  0  0  0  0
    2.2648    1.2596    0.0000 C   0  0  0  0  0  0  0  0  0  0  0  0
    1.3133    0.9519    0.0000 C   0  0  0  0  0  0  0  0  0  0  0  0
    0.5008    1.5428    0.0000 O   0  0  0  0  0  0  0  0  0  0  0  0
   -0.3065    0.9519    0.0000 C   0  0  0  0  0  0  0  0  0  0  0  0
   -1.2577    1.2605    0.0000 C   0  0  0  0  0  0  0  0  0  0  0  0
   -2.0024    0.5854    0.0000 C   0  0  0  0  0  0  0  0  0  0  0  0
   -2.9537    0.8939    0.0000 C   0  0  0  0  0  0  0  0  0  0  0  0
   -3.1677    1.8708    0.0000 C   0  0  0  0  0  0  0  0  0  0  0  0
   -2.4230    2.5459    0.0000 C   0  0  0  0  0  0  0  0  0  0  0  0
   -1.4642    2.2442    0.0000 C   0  0  0  0  0  0  0  0  0  0  0  0
    0.0000    0.0000    0.0000 C   0  0  0  0  0  0  0  0  0  0  0  0
    1.0015   -0.0000    0.0000 N   0  0  0  0  0  0  0  0  0  0  0  0
   -0.5889   -0.8082    0.0000 C   0  0  0  0  0  0  0  0  0  0  0  0
   -0.1785   -1.7259    0.0000 C   0  0  0  0  0  0  0  0  0  0  0  0
   -0.7674   -2.5342    0.0000 C   0  0  0  0  0  0  0  0  0  0  0  0
   -1.7624   -2.4341    0.0000 C   0  0  0  0  0  0  0  0  0  0  0  0
   -2.1727   -1.5165    0.0000 C   0  0  0  0  0  0  0  0  0  0  0  0
   -1.5880   -0.6989    0.0000 C   0  0  0  0  0  0  0  0  0  0  0  0
  1  2  1  0
  2  3  2  0
  2  4  1  0
  4  5  1  0
  5  6  1  0
  6 16  2  0
  6  7  1  0
  7  8  1  0
  8  9  1  0
  9 14  1  0
  9 10  2  0
 10 11  1  0
 11 12  2  0
 12 13  1  0
 13 14  2  0
  8 15  2  0
 15 16  1  0
 15 17  1  0
 17 22  1  0
 17 18  2  0
 18 19  1  0
 19 20  2  0
 20 21  1  0
 21 22  2  0
M  END
>  <SMILES>  (720) 
O=C(O)CCc1nc(-c2ccccc2)c(-c2ccccc2)o1

>  <CollectionName>  (720) 
chembl

>  <LOG PLASMA PROTEIN BINDING (RAT) (% unbound)>  (720) 
-0.619788758288

>  <Internal ID>  (720) 


>  <Source>  (720) 
AstraZeneca

$$$$
CHEMBL1072
     RDKit          2D

 25 26  0  0  0  0  0  0  0  0999 V2000
   -1.7255    1.0117    0.0000 C   0  0  0  0  0  0  0  0  0  0  0  0
   -0.8587    1.5104    0.0000 C   0  0  0  0  0  0  0  0  0  0  0  0
   -0.8572    2.5104    0.0000 C   0  0  0  0  0  0  0  0  0  0  0  0
    0.0096    3.0091    0.0000 C   0  0  0  0  0  0  0  0  0  0  0  0
    0.8748    2.5078    0.0000 N   0  0  0  0  0  0  0  0  0  0  0  0
    1.7416    3.0065    0.0000 C   0  0  0  0  0  0  0  0  0  0  0  0
    1.7402    4.0065    0.0000 C   0  0  0  0  0  0  0  0  0  0  0  0
    2.6115    4.5078    0.0000 C   0  0  0  0  0  0  0  0  0  0  0  0
    3.4842    4.0090    0.0000 C   0  0  0  0  0  0  0  0  0  0  0  0
    3.4767    3.0039    0.0000 C   0  0  0  0  0  0  0  0  0  0  0  0
    2.6054    2.5026    0.0000 C   0  0  0  0  0  0  0  0  0  0  0  0
    2.6025    1.5026    0.0000 O   0  0  0  0  0  0  0  0  0  0  0  0
    1.7350    1.0052    0.0000 C   0  0  0  0  0  0  0  0  0  0  0  0
    1.7350   -0.0000    0.0000 C   0  0  0  0  0  0  0  0  0  0  0  0
    0.8675   -0.4975    0.0000 C   0  0  0  0  0  0  0  0  0  0  0  0
    0.0000    0.0000    0.0000 C   0  0  0  0  0  0  0  0  0  0  0  0
    0.0000    1.0052    0.0000 C   0  0  0  0  0  0  0  0  0  0  0  0
    0.8675    1.5129    0.0000 C   0  0  0  0  0  0  0  0  0  0  0  0
    4.3405    2.5001    0.0000 S   0  0  0  0  0  0  0  0  0  0  0  0
    4.8444    3.3639    0.0000 O   0  0  0  0  0  0  0  0  0  0  0  0
    3.8367    1.6363    0.0000 O   0  0  0  0  0  0  0  0  0  0  0  0
    5.2043    1.9962    0.0000 N   0  0  0  0  0  0  0  0  0  0  0  0
    2.6100    5.5078    0.0000 C   0  0  0  0  0  0  0  0  0  0  0  0
    3.4753    6.0090    0.0000 O   0  0  0  0  0  0  0  0  0  0  0  0
    1.7433    6.0065    0.0000 O   0  0  0  0  0  0  0  0  0  0  0  0
  1  2  1  0
  2  3  1  0
  3  4  1  0
  4  5  1  0
  5  6  1  0
  6 11  2  0
  6  7  1  0
  7  8  2  0
  8  9  1  0
  9 10  2  0
 10 11  1  0
 11 12  1  0
 12 13  1  0
 13 18  1  0
 13 14  2  0
 14 15  1  0
 15 16  2  0
 16 17  1  0
 17 18  2  0
 10 19  1  0
 19 20  2  0
 19 21  2  0
 19 22  1  0
  8 23  1  0
 23 24  2  0
 23 25  1  0
M  END
>  <SMILES>  (721) 
CCCCNc1cc(C(=O)O)cc(S(N)(=O)=O)c1Oc1ccccc1

>  <CollectionName>  (721) 
chembl

>  <LOG PLASMA PROTEIN BINDING (RAT) (% unbound)>  (721) 
0.563481085394

>  <Internal ID>  (721) 


>  <Source>  (721) 
AstraZeneca

$$$$
CHEMBL398748
     RDKit          2D

 33 37  0  0  1  0  0  0  0  0999 V2000
   -0.8705    2.5063    0.0000 C   0  0  0  0  0  0  0  0  0  0  0  0
   -0.8675    1.5063    0.0000 O   0  0  0  0  0  0  0  0  0  0  0  0
    0.0000    1.0089    0.0000 C   0  0  0  0  0  0  0  0  0  0  0  0
    0.0000    0.0000    0.0000 C   0  0  0  0  0  0  0  0  0  0  0  0
    0.8707   -0.4993    0.0000 C   0  0  0  0  0  0  0  0  0  0  0  0
    1.7371   -0.0000    0.0000 C   0  0  0  0  0  0  0  0  0  0  0  0
    2.6039   -0.5053    0.0000 C   0  0  0  0  0  0  0  0  0  0  0  0
    2.5983   -1.5053    0.0000 C   0  0  0  0  0  0  0  0  0  0  0  0
    3.4805   -0.0073    0.0000 C   0  0  0  0  0  0  0  0  0  0  0  0
    3.4848    1.0014    0.0000 C   0  0  0  0  0  0  0  0  0  0  0  0
    4.3535    1.4968    0.0000 N   0  0  0  0  0  0  0  0  0  0  0  0
    4.3588    2.4968    0.0000 C   0  0  0  0  0  0  0  0  0  0  0  0
    5.1727    3.0778    0.0000 C   0  0  0  0  0  0  0  0  0  0  0  0
    4.8688    4.0319    0.0000 C   0  0  0  0  0  0  0  0  0  0  0  0
    3.8671    4.0399    0.0000 C   0  0  0  0  0  0  0  0  0  0  0  0
    3.5509    3.0865    0.0000 C   0  0  0  0  0  0  0  0  0  0  0  0
    3.2851    4.8531    0.0000 N   0  0  0  0  0  0  0  0  0  0  0  0
    2.2898    4.7555    0.0000 C   0  0  0  0  0  0  0  0  0  0  0  0
    1.7078    5.5687    0.0000 C   0  0  0  0  0  0  0  0  0  0  0  0
    2.0257    6.5243    0.0000 C   0  0  0  0  0  0  0  0  0  0  0  0
    1.2151    7.1218    0.0000 N   0  0  0  0  0  0  0  0  0  0  0  0
    1.2221    8.1218    0.0000 C   0  0  0  0  0  0  0  0  0  0  0  0
    0.3962    6.5357    0.0000 C   0  0  0  0  0  0  0  0  0  0  0  0
   -0.5848    6.7575    0.0000 C   0  0  0  0  0  0  0  0  0  0  0  0
   -1.2585    6.0108    0.0000 C   0  0  0  0  0  0  0  0  0  0  0  0
   -0.9544    5.0521    0.0000 C   0  0  0  0  0  0  0  0  0  0  0  0
    0.0235    4.8400    0.0000 C   0  0  0  0  0  0  0  0  0  0  0  0
    0.7007    5.5758    0.0000 C   0  0  0  0  0  0  0  0  0  0  0  0
   -1.6277    4.3127    0.0000 C   0  0  0  0  0  0  0  0  0  0  0  0
   -2.3009    3.5732    0.0000 N   0  0  0  0  0  0  0  0  0  0  0  0
    2.6125    1.5125    0.0000 N   0  0  0  0  0  0  0  0  0  0  0  0
    1.7414    1.0089    0.0000 C   0  0  0  0  0  0  0  0  0  0  0  0
    0.8707    1.5185    0.0000 C   0  0  0  0  0  0  0  0  0  0  0  0
  1  2  1  0
  2  3  1  0
  3 33  2  0
  3  4  1  0
  4  5  2  0
  5  6  1  0
  6 32  2  0
  6  7  1  0
  7  8  1  0
  7  9  2  0
  9 10  1  0
 10 11  1  0
 12 11  1  6
 12 16  1  0
 12 13  1  0
 13 14  1  0
 14 15  1  0
 15 16  1  0
 15 17  1  1
 17 18  1  0
 18 19  1  0
 19 28  1  0
 19 20  2  0
 20 21  1  0
 21 22  1  0
 21 23  1  0
 23 28  2  0
 23 24  1  0
 24 25  2  0
 25 26  1  0
 26 27  2  0
 27 28  1  0
 26 29  1  0
 29 30  3  0
 10 31  2  0
 31 32  1  0
 32 33  1  0
M  END
>  <SMILES>  (722) 
COc1ccc2c(C)cc(N[C@H]3CC[C@H](NCc4cn(C)c5ccc(C#N)cc45)C3)nc2c1

>  <CollectionName>  (722) 
chembl

>  <LOG PLASMA PROTEIN BINDING (RAT) (% unbound)>  (722) 
0.164352855784

>  <Internal ID>  (722) 


>  <Source>  (722) 
AstraZeneca

$$$$
CHEMBL403313
     RDKit          2D

 30 32  0  0  0  0  0  0  0  0999 V2000
    1.2530   -7.0892    0.0000 C   0  0  0  0  0  0  0  0  0  0  0  0
    0.9440   -6.1382    0.0000 N   0  0  0  0  0  0  0  0  0  0  0  0
   -0.0341   -5.9302    0.0000 C   0  0  0  0  0  0  0  0  0  0  0  0
    1.6132   -5.3951    0.0000 S   0  0  0  0  0  0  0  0  0  0  0  0
    2.3563   -6.0642    0.0000 O   0  0  0  0  0  0  0  0  0  0  0  0
    0.8701   -4.7259    0.0000 O   0  0  0  0  0  0  0  0  0  0  0  0
    2.2824   -4.6519    0.0000 N   0  0  0  0  0  0  0  0  0  0  0  0
    1.9734   -3.7009    0.0000 C   0  0  0  0  0  0  0  0  0  0  0  0
    0.9953   -3.4929    0.0000 O   0  0  0  0  0  0  0  0  0  0  0  0
    2.6426   -2.9578    0.0000 C   0  0  0  0  0  0  0  0  0  0  0  0
    2.3336   -2.0067    0.0000 C   0  0  0  0  0  0  0  0  0  0  0  0
    3.0028   -1.2636    0.0000 C   0  0  0  0  0  0  0  0  0  0  0  0
    2.6938   -0.3125    0.0000 C   0  0  0  0  0  0  0  0  0  0  0  0
    3.2858    0.5023    0.0000 C   0  0  0  0  0  0  0  0  0  0  0  0
    2.6938    1.3169    0.0000 N   0  0  0  0  0  0  0  0  0  0  0  0
    1.7360    1.0058    0.0000 C   0  0  0  0  0  0  0  0  0  0  0  0
    0.8680    1.5138    0.0000 C   0  0  0  0  0  0  0  0  0  0  0  0
    0.0000    1.0058    0.0000 C   0  0  0  0  0  0  0  0  0  0  0  0
    0.0000    0.0000    0.0000 C   0  0  0  0  0  0  0  0  0  0  0  0
    0.8680   -0.4978    0.0000 C   0  0  0  0  0  0  0  0  0  0  0  0
    1.7360   -0.0012    0.0000 C   0  0  0  0  0  0  0  0  0  0  0  0
   -0.8653   -0.5013    0.0000 C   0  0  0  0  0  0  0  0  0  0  0  0
   -1.7306   -1.0025    0.0000 N   0  0  0  0  0  0  0  0  0  0  0  0
    4.2858    0.5024    0.0000 C   0  0  0  0  0  0  0  0  0  0  0  0
    4.7871   -0.3629    0.0000 C   0  0  0  0  0  0  0  0  0  0  0  0
    5.7871   -0.3672    0.0000 C   0  0  0  0  0  0  0  0  0  0  0  0
    6.2910    0.5026    0.0000 C   0  0  0  0  0  0  0  0  0  0  0  0
    7.2909    0.4982    0.0000 F   0  0  0  0  0  0  0  0  0  0  0  0
    5.7947    1.3767    0.0000 C   0  0  0  0  0  0  0  0  0  0  0  0
    4.7896    1.3722    0.0000 C   0  0  0  0  0  0  0  0  0  0  0  0
  1  2  1  0
  2  3  1  0
  2  4  1  0
  4  5  2  0
  4  6  2  0
  4  7  1  0
  7  8  1  0
  8  9  2  0
  8 10  1  0
 10 11  1  0
 11 12  1  0
 12 13  1  0
 13 21  1  0
 13 14  2  0
 14 15  1  0
 15 16  1  0
 16 21  2  0
 16 17  1  0
 17 18  2  0
 18 19  1  0
 19 20  2  0
 20 21  1  0
 19 22  1  0
 22 23  3  0
 14 24  1  0
 24 30  1  0
 24 25  2  0
 25 26  1  0
 26 27  2  0
 27 28  1  0
 27 29  1  0
 29 30  2  0
M  END
>  <SMILES>  (723) 
CN(C)S(=O)(=O)NC(=O)CCCc1c(-c2ccc(F)cc2)[nH]c2ccc(C#N)cc12

>  <CollectionName>  (723) 
chembl

>  <LOG PLASMA PROTEIN BINDING (RAT) (% unbound)>  (723) 
-0.376750709602

>  <Internal ID>  (723) 


>  <Source>  (723) 
AstraZeneca

$$$$
CHEMBL1625921
     RDKit          2D

 23 26  0  0  0  0  0  0  0  0999 V2000
    0.0891    3.3375    0.0000 O   0  0  0  0  0  0  0  0  0  0  0  0
    0.9679    3.8148    0.0000 C   0  0  0  0  0  0  0  0  0  0  0  0
    1.8206    3.2925    0.0000 N   0  0  0  0  0  0  0  0  0  0  0  0
    1.7946    2.2928    0.0000 C   0  0  0  0  0  0  0  0  0  0  0  0
    0.8413    1.9596    0.0000 C   0  0  0  0  0  0  0  0  0  0  0  0
    0.8471    0.9032    0.0000 C   0  0  0  0  0  0  0  0  0  0  0  0
    0.0000    0.0000    0.0000 C   0  0  0  0  0  0  0  0  0  0  0  0
    1.0628    0.2973    0.0000 C   0  0  0  0  0  0  0  0  0  0  0  0
    2.0572   -0.0972    0.0000 C   0  0  0  0  0  0  0  0  0  0  0  0
    2.7750    0.8067    0.0000 C   0  0  0  0  0  0  0  0  0  0  0  0
    1.7870    0.5617    0.0000 C   0  0  0  0  0  0  0  0  0  0  0  0
    2.7828    1.8886    0.0000 C   0  0  0  0  0  0  0  0  0  0  0  0
    1.0593    1.4236    0.0000 C   0  0  0  0  0  0  0  0  0  0  0  0
    0.9939    4.8145    0.0000 O   0  0  0  0  0  0  0  0  0  0  0  0
    0.1411    5.3368    0.0000 C   0  0  0  0  0  0  0  0  0  0  0  0
    0.1672    6.3365    0.0000 C   0  0  0  0  0  0  0  0  0  0  0  0
   -0.6856    6.8588    0.0000 N   0  0  0  0  0  0  0  0  0  0  0  0
   -0.6596    7.8585    0.0000 C   0  0  0  0  0  0  0  0  0  0  0  0
   -1.5183    8.3810    0.0000 C   0  0  0  0  0  0  0  0  0  0  0  0
   -1.4923    9.3807    0.0000 C   0  0  0  0  0  0  0  0  0  0  0  0
   -0.6164    9.8632    0.0000 C   0  0  0  0  0  0  0  0  0  0  0  0
    0.2423    9.3407    0.0000 C   0  0  0  0  0  0  0  0  0  0  0  0
    0.2251    8.3357    0.0000 C   0  0  0  0  0  0  0  0  0  0  0  0
  1  2  2  0
  2  3  1  0
  3  4  1  0
  4 12  1  0
  4 13  1  0
  4  5  1  0
  5  6  1  0
  6 11  1  0
  6  7  1  0
  7  8  1  0
  8  9  1  0
  9 10  1  0
 10 11  1  0
 10 12  1  0
  8 13  1  0
  2 14  1  0
 14 15  1  0
 15 16  1  0
 16 17  1  0
 17 18  1  0
 18 23  1  0
 18 19  1  0
 19 20  1  0
 20 21  1  0
 21 22  1  0
 22 23  1  0
M  END
>  <SMILES>  (724) 
O=C(NC12CC3CC(CC(C3)C1)C2)OCCNC1CCCCC1

>  <CollectionName>  (724) 
chembl

>  <LOG PLASMA PROTEIN BINDING (RAT) (% unbound)>  (724) 
1.11025291735

>  <Internal ID>  (724) 


>  <Source>  (724) 
AstraZeneca

$$$$
CHEMBL2147303
     RDKit          2D

 34 36  0  0  0  0  0  0  0  0999 V2000
   -6.9237   -4.7691    0.0000 C   0  0  0  0  0  0  0  0  0  0  0  0
   -6.0569   -4.2703    0.0000 O   0  0  0  0  0  0  0  0  0  0  0  0
   -6.0555   -3.2703    0.0000 C   0  0  0  0  0  0  0  0  0  0  0  0
   -5.1828   -2.7716    0.0000 N   0  0  0  0  0  0  0  0  0  0  0  0
   -5.1902   -1.7665    0.0000 C   0  0  0  0  0  0  0  0  0  0  0  0
   -6.0615   -1.2652    0.0000 C   0  0  0  0  0  0  0  0  0  0  0  0
   -6.9253   -1.7690    0.0000 C   0  0  0  0  0  0  0  0  0  0  0  0
   -6.9267   -2.7691    0.0000 N   0  0  0  0  0  0  0  0  0  0  0  0
   -6.0667    0.4848    0.0000 C   0  0  0  0  0  0  0  0  0  0  0  0
   -6.9335    0.9835    0.0000 C   0  0  0  0  0  0  0  0  0  0  0  0
   -6.9408    1.9835    0.0000 C   0  0  0  0  0  0  0  0  0  0  0  0
   -6.0725    2.4899    0.0000 C   0  0  0  0  0  0  0  0  0  0  0  0
   -5.1968    1.9964    0.0000 C   0  0  0  0  0  0  0  0  0  0  0  0
   -5.1983    0.9912    0.0000 C   0  0  0  0  0  0  0  0  0  0  0  0
   -4.3316    0.4925    0.0000 C   0  0  0  0  0  0  0  0  0  0  0  0
   -4.8303   -0.3743    0.0000 F   0  0  0  0  0  0  0  0  0  0  0  0
   -3.8329    1.3592    0.0000 F   0  0  0  0  0  0  0  0  0  0  0  0
   -3.4648   -0.0063    0.0000 C   0  0  0  0  0  0  0  0  0  0  0  0
   -2.5995    0.4950    0.0000 N   0  0  0  0  0  0  0  0  0  0  0  0
   -1.7328   -0.0038    0.0000 C   0  0  0  0  0  0  0  0  0  0  0  0
   -1.7313   -1.0038    0.0000 O   0  0  0  0  0  0  0  0  0  0  0  0
   -0.8675    0.4975    0.0000 C   0  0  0  0  0  0  0  0  0  0  0  0
    0.0000    0.0000    0.0000 C   0  0  0  0  0  0  0  0  0  0  0  0
    0.8675    0.4975    0.0000 C   0  0  0  0  0  0  0  0  0  0  0  0
    0.8675    1.5027    0.0000 C   0  0  0  0  0  0  0  0  0  0  0  0
    1.7350    2.0001    0.0000 C   0  0  0  0  0  0  0  0  0  0  0  0
    1.7379    3.0001    0.0000 O   0  0  0  0  0  0  0  0  0  0  0  0
    2.6054    3.4976    0.0000 C   0  0  0  0  0  0  0  0  0  0  0  0
    2.6084    4.4976    0.0000 C   0  0  0  0  0  0  0  0  0  0  0  0
    1.6084    4.5005    0.0000 F   0  0  0  0  0  0  0  0  0  0  0  0
    3.6084    4.4946    0.0000 F   0  0  0  0  0  0  0  0  0  0  0  0
    2.6113    5.4976    0.0000 F   0  0  0  0  0  0  0  0  0  0  0  0
    0.0000    2.0104    0.0000 N   0  0  0  0  0  0  0  0  0  0  0  0
   -0.8675    1.5027    0.0000 C   0  0  0  0  0  0  0  0  0  0  0  0
  1  2  1  0
  2  3  1  0
  3  8  2  0
  3  4  1  0
  4  5  2  0
  5  6  1  0
  6  7  2  0
  7  8  1  0
  6  9  1  0
  9 14  1  0
  9 10  2  0
 10 11  1  0
 11 12  2  0
 12 13  1  0
 13 14  2  0
 14 15  1  0
 15 16  1  0
 15 17  1  0
 15 18  1  0
 18 19  1  0
 19 20  1  0
 20 21  2  0
 20 22  1  0
 22 34  1  0
 22 23  2  0
 23 24  1  0
 24 25  2  0
 25 26  1  0
 26 27  1  0
 27 28  1  0
 28 29  1  0
 29 30  1  0
 29 31  1  0
 29 32  1  0
 25 33  1  0
 33 34  2  0
M  END
>  <SMILES>  (725) 
COc1ncc(-c2ccccc2C(F)(F)CNC(=O)c2ccc(COCC(F)(F)F)nc2)cn1

>  <CollectionName>  (725) 
chembl

>  <LOG PLASMA PROTEIN BINDING (RAT) (% unbound)>  (725) 
1.11025291735

>  <Internal ID>  (725) 


>  <Source>  (725) 
AstraZeneca

$$$$
CHEMBL2147307
     RDKit          2D

 34 36  0  0  0  0  0  0  0  0999 V2000
   -5.2139    5.0002    0.0000 C   0  0  0  0  0  0  0  0  0  0  0  0
   -6.0800    4.5002    0.0000 O   0  0  0  0  0  0  0  0  0  0  0  0
   -6.0800    3.5002    0.0000 C   0  0  0  0  0  0  0  0  0  0  0  0
   -5.2080    3.0002    0.0000 C   0  0  0  0  0  0  0  0  0  0  0  0
   -5.2079    2.0002    0.0000 N   0  0  0  0  0  0  0  0  0  0  0  0
   -6.0710    1.4951    0.0000 C   0  0  0  0  0  0  0  0  0  0  0  0
   -6.9430    1.9951    0.0000 C   0  0  0  0  0  0  0  0  0  0  0  0
   -6.9519    3.0002    0.0000 N   0  0  0  0  0  0  0  0  0  0  0  0
   -6.0666    0.4951    0.0000 C   0  0  0  0  0  0  0  0  0  0  0  0
   -6.9319   -0.0164    0.0000 C   0  0  0  0  0  0  0  0  0  0  0  0
   -7.8016    0.4772    0.0000 C   0  0  0  0  0  0  0  0  0  0  0  0
   -6.9275   -1.0216    0.0000 C   0  0  0  0  0  0  0  0  0  0  0  0
   -6.0578   -1.5153    0.0000 C   0  0  0  0  0  0  0  0  0  0  0  0
   -5.1925   -1.0140    0.0000 C   0  0  0  0  0  0  0  0  0  0  0  0
   -4.3250   -1.5114    0.0000 F   0  0  0  0  0  0  0  0  0  0  0  0
   -5.1969   -0.0088    0.0000 C   0  0  0  0  0  0  0  0  0  0  0  0
   -4.3316    0.4925    0.0000 C   0  0  0  0  0  0  0  0  0  0  0  0
   -3.4648   -0.0063    0.0000 C   0  0  0  0  0  0  0  0  0  0  0  0
   -2.5995    0.4950    0.0000 N   0  0  0  0  0  0  0  0  0  0  0  0
   -1.7328   -0.0038    0.0000 C   0  0  0  0  0  0  0  0  0  0  0  0
   -1.7313   -1.0038    0.0000 O   0  0  0  0  0  0  0  0  0  0  0  0
   -0.8675    0.4975    0.0000 C   0  0  0  0  0  0  0  0  0  0  0  0
    0.0000    0.0000    0.0000 C   0  0  0  0  0  0  0  0  0  0  0  0
    0.8675    0.4975    0.0000 C   0  0  0  0  0  0  0  0  0  0  0  0
    0.8675    1.5027    0.0000 C   0  0  0  0  0  0  0  0  0  0  0  0
    1.7350    2.0001    0.0000 C   0  0  0  0  0  0  0  0  0  0  0  0
    1.7379    3.0001    0.0000 O   0  0  0  0  0  0  0  0  0  0  0  0
    2.6054    3.4976    0.0000 C   0  0  0  0  0  0  0  0  0  0  0  0
    2.6084    4.4976    0.0000 C   0  0  0  0  0  0  0  0  0  0  0  0
    1.6084    4.5005    0.0000 F   0  0  0  0  0  0  0  0  0  0  0  0
    3.6084    4.4946    0.0000 F   0  0  0  0  0  0  0  0  0  0  0  0
    2.6113    5.4976    0.0000 F   0  0  0  0  0  0  0  0  0  0  0  0
    0.0000    2.0104    0.0000 N   0  0  0  0  0  0  0  0  0  0  0  0
   -0.8675    1.5027    0.0000 C   0  0  0  0  0  0  0  0  0  0  0  0
  1  2  1  0
  2  3  1  0
  3  8  2  0
  3  4  1  0
  4  5  2  0
  5  6  1  0
  6  7  2  0
  7  8  1  0
  6  9  1  0
  9 16  1  0
  9 10  2  0
 10 11  1  0
 10 12  1  0
 12 13  2  0
 13 14  1  0
 14 15  1  0
 14 16  2  0
 16 17  1  0
 17 18  1  0
 18 19  1  0
 19 20  1  0
 20 21  2  0
 20 22  1  0
 22 34  1  0
 22 23  2  0
 23 24  1  0
 24 25  2  0
 25 26  1  0
 26 27  1  0
 27 28  1  0
 28 29  1  0
 29 30  1  0
 29 31  1  0
 29 32  1  0
 25 33  1  0
 33 34  2  0
M  END
>  <SMILES>  (726) 
COc1cnc(-c2c(C)ccc(F)c2CCNC(=O)c2ccc(COCC(F)(F)F)nc2)cn1

>  <CollectionName>  (726) 
chembl

>  <LOG PLASMA PROTEIN BINDING (RAT) (% unbound)>  (726) 
0.994756944588

>  <Internal ID>  (726) 


>  <Source>  (726) 
AstraZeneca

$$$$
CHEMBL2151147
     RDKit          2D

 31 33  0  0  1  0  0  0  0  0999 V2000
    2.5995    1.4976    0.0000 C   0  0  0  0  0  0  0  0  0  0  0  0
    1.7350    2.0001    0.0000 C   0  0  0  0  0  0  0  0  0  0  0  0
    1.7379    3.0001    0.0000 N   0  0  0  0  0  0  0  0  0  0  0  0
    2.6054    3.4976    0.0000 C   0  0  0  0  0  0  0  0  0  0  0  0
    3.4700    2.9950    0.0000 O   0  0  0  0  0  0  0  0  0  0  0  0
    2.6084    4.4976    0.0000 C   0  0  0  0  0  0  0  0  0  0  0  0
    3.4759    4.9950    0.0000 C   0  0  0  0  0  0  0  0  0  0  0  0
    4.3412    4.4937    0.0000 C   0  0  0  0  0  0  0  0  0  0  0  0
    5.2109    4.9874    0.0000 C   0  0  0  0  0  0  0  0  0  0  0  0
    5.2153    5.9926    0.0000 C   0  0  0  0  0  0  0  0  0  0  0  0
    4.3500    6.5041    0.0000 C   0  0  0  0  0  0  0  0  0  0  0  0
    3.4803    6.0002    0.0000 C   0  0  0  0  0  0  0  0  0  0  0  0
    6.0850    6.4862    0.0000 C   0  0  0  0  0  0  0  0  0  0  0  0
    6.9502    5.9747    0.0000 N   0  0  0  0  0  0  0  0  0  0  0  0
    7.8200    6.4786    0.0000 C   0  0  0  0  0  0  0  0  0  0  0  0
    7.8244    7.4837    0.0000 C   0  0  0  0  0  0  0  0  0  0  0  0
    6.9591    7.9851    0.0000 N   0  0  0  0  0  0  0  0  0  0  0  0
    6.0894    7.4914    0.0000 C   0  0  0  0  0  0  0  0  0  0  0  0
    5.2263    7.9964    0.0000 C   0  0  0  0  0  0  0  0  0  0  0  0
    0.8675    1.5027    0.0000 C   0  0  0  0  0  0  0  0  0  0  0  0
    0.8675    0.4975    0.0000 C   0  0  0  0  0  0  0  0  0  0  0  0
    0.0000    0.0000    0.0000 C   0  0  0  0  0  0  0  0  0  0  0  0
   -0.8675    0.4975    0.0000 C   0  0  0  0  0  0  0  0  0  0  0  0
   -1.7328   -0.0038    0.0000 O   0  0  0  0  0  0  0  0  0  0  0  0
   -1.7313   -1.0038    0.0000 C   0  0  0  0  0  0  0  0  0  0  0  0
   -2.5966   -1.5050    0.0000 C   0  0  0  0  0  0  0  0  0  0  0  0
   -2.0954   -2.3703    0.0000 F   0  0  0  0  0  0  0  0  0  0  0  0
   -3.0979   -0.6397    0.0000 F   0  0  0  0  0  0  0  0  0  0  0  0
   -3.4619   -2.0063    0.0000 F   0  0  0  0  0  0  0  0  0  0  0  0
   -0.8675    1.5027    0.0000 C   0  0  0  0  0  0  0  0  0  0  0  0
    0.0000    2.0104    0.0000 N   0  0  0  0  0  0  0  0  0  0  0  0
  2  1  1  6
  2  3  1  0
  3  4  1  0
  4  5  2  0
  4  6  1  0
  6  7  1  0
  7 12  1  0
  7  8  2  0
  8  9  1  0
  9 10  2  0
 10 11  1  0
 11 12  2  0
 10 13  1  0
 13 18  1  0
 13 14  2  0
 14 15  1  0
 15 16  2  0
 16 17  1  0
 17 18  2  0
 18 19  1  0
  2 20  1  0
 20 31  1  0
 20 21  2  0
 21 22  1  0
 22 23  2  0
 23 24  1  0
 24 25  1  0
 25 26  1  0
 26 27  1  0
 26 28  1  0
 26 29  1  0
 23 30  1  0
 30 31  2  0
M  END
>  <SMILES>  (727) 
Cc1nccnc1-c1ccc(CC(=O)N[C@H](C)c2ccc(OCC(F)(F)F)cn2)cc1

>  <CollectionName>  (727) 
chembl

>  <LOG PLASMA PROTEIN BINDING (RAT) (% unbound)>  (727) 
1.22942584792

>  <Internal ID>  (727) 


>  <Source>  (727) 
AstraZeneca

$$$$
CHEMBL2151320
     RDKit          2D

 25 28  0  0  1  0  0  0  0  0999 V2000
   -1.7296    0.0101    0.0000 C   0  0  0  0  0  0  0  0  0  0  0  0
   -1.7269    1.0101    0.0000 C   0  0  0  0  0  0  0  0  0  0  0  0
   -0.8596    1.5078    0.0000 N   0  0  0  0  0  0  0  0  0  0  0  0
    0.0051    1.0055    0.0000 C   0  0  0  0  0  0  0  0  0  0  0  0
    0.0000    0.0000    0.0000 C   0  0  0  0  0  0  0  0  0  0  0  0
    0.8635   -0.5043    0.0000 C   0  0  0  0  0  0  0  0  0  0  0  0
    1.7361   -0.0079    0.0000 C   0  0  0  0  0  0  0  0  0  0  0  0
    2.6894   -0.3248    0.0000 N   0  0  0  0  0  0  0  0  0  0  0  0
    3.2854    0.4841    0.0000 C   0  0  0  0  0  0  0  0  0  0  0  0
    2.7001    1.3007    0.0000 N   0  0  0  0  0  0  0  0  0  0  0  0
    3.0154    2.2497    0.0000 C   0  0  0  0  0  0  0  0  0  0  0  0
    3.9695    2.5495    0.0000 C   0  0  0  0  0  0  0  0  0  0  0  0
    3.9765    3.5509    0.0000 C   0  0  0  0  0  0  0  0  0  0  0  0
    4.7904    4.1320    0.0000 C   0  0  0  0  0  0  0  0  0  0  0  0
    3.0269    3.8694    0.0000 N   0  0  0  0  0  0  0  0  0  0  0  0
    2.4302    3.0611    0.0000 N   0  0  0  0  0  0  0  0  0  0  0  0
    1.7426    0.9968    0.0000 C   0  0  0  0  0  0  0  0  0  0  0  0
    0.8736    1.5067    0.0000 N   0  0  0  0  0  0  0  0  0  0  0  0
   -2.5916    1.5123    0.0000 C   0  0  0  0  0  0  0  0  0  0  0  0
   -2.5860    2.5175    0.0000 N   0  0  0  0  0  0  0  0  0  0  0  0
   -3.4596    3.0146    0.0000 C   0  0  0  0  0  0  0  0  0  0  0  0
   -4.3300    2.5118    0.0000 C   0  0  0  0  0  0  0  0  0  0  0  0
   -5.1969    3.0102    0.0000 F   0  0  0  0  0  0  0  0  0  0  0  0
   -4.3268    1.5117    0.0000 C   0  0  0  0  0  0  0  0  0  0  0  0
   -3.4620    1.0095    0.0000 N   0  0  0  0  0  0  0  0  0  0  0  0
  2  1  1  1
  2  3  1  0
  3  4  1  0
  4 18  1  0
  4  5  2  0
  5  6  1  0
  6  7  2  0
  7 17  1  0
  7  8  1  0
  8  9  2  0
  9 10  1  0
 10 11  1  0
 11 16  2  0
 11 12  1  0
 12 13  2  0
 13 14  1  0
 13 15  1  0
 15 16  1  0
 10 17  1  0
 17 18  2  0
  2 19  1  0
 19 25  1  0
 19 20  2  0
 20 21  1  0
 21 22  2  0
 22 23  1  0
 22 24  1  0
 24 25  2  0
M  END
>  <SMILES>  (728) 
Cc1cc(-n2cnc3ccc(N[C@@H](C)c4ncc(F)cn4)nc32)n[nH]1

>  <CollectionName>  (728) 
chembl

>  <LOG PLASMA PROTEIN BINDING (RAT) (% unbound)>  (728) 
1.68367729882

>  <Internal ID>  (728) 


>  <Source>  (728) 
AstraZeneca

$$$$
CHEMBL2152523
     RDKit          2D

 26 29  0  0  1  0  0  0  0  0999 V2000
    0.8660    6.5208    0.0000 C   0  0  0  0  0  0  0  0  0  0  0  0
    1.7335    6.0233    0.0000 C   0  0  0  0  0  0  0  0  0  0  0  0
    1.7335    5.0181    0.0000 C   0  0  0  0  0  0  0  0  0  0  0  0
    0.8660    4.5104    0.0000 N   0  0  0  0  0  0  0  0  0  0  0  0
   -0.0015    5.0181    0.0000 C   0  0  0  0  0  0  0  0  0  0  0  0
   -0.0015    6.0233    0.0000 C   0  0  0  0  0  0  0  0  0  0  0  0
    0.8660    3.5104    0.0000 C   0  0  0  0  0  0  0  0  0  0  0  0
   -0.0000    3.0104    0.0000 C   0  0  0  0  0  0  0  0  0  0  0  0
   -0.0000    2.0104    0.0000 N   0  0  0  0  0  0  0  0  0  0  0  0
   -0.8675    1.5027    0.0000 C   0  0  0  0  0  0  0  0  0  0  0  0
   -0.8675    0.4975    0.0000 C   0  0  0  0  0  0  0  0  0  0  0  0
    0.0000    0.0000    0.0000 C   0  0  0  0  0  0  0  0  0  0  0  0
    0.8675    0.4975    0.0000 C   0  0  0  0  0  0  0  0  0  0  0  0
    0.8675    1.5027    0.0000 C   0  0  0  0  0  0  0  0  0  0  0  0
   -0.8660    3.5104    0.0000 C   0  0  0  0  0  0  0  0  0  0  0  0
   -1.7351    3.0052    0.0000 C   0  0  0  0  0  0  0  0  0  0  0  0
   -2.6011    3.5052    0.0000 C   0  0  0  0  0  0  0  0  0  0  0  0
   -2.6070    4.5052    0.0000 C   0  0  0  0  0  0  0  0  0  0  0  0
   -1.7380    5.0104    0.0000 C   0  0  0  0  0  0  0  0  0  0  0  0
   -0.8631    4.5155    0.0000 C   0  0  0  0  0  0  0  0  0  0  0  0
    1.7321    3.0104    0.0000 C   0  0  0  0  0  0  0  0  0  0  0  0
    2.6011    3.5156    0.0000 C   0  0  0  0  0  0  0  0  0  0  0  0
    3.4672    3.0156    0.0000 C   0  0  0  0  0  0  0  0  0  0  0  0
    3.4730    2.0156    0.0000 C   0  0  0  0  0  0  0  0  0  0  0  0
    2.6040    1.5104    0.0000 C   0  0  0  0  0  0  0  0  0  0  0  0
    1.7291    2.0053    0.0000 C   0  0  0  0  0  0  0  0  0  0  0  0
  1  6  1  0
  1  2  1  0
  2  3  1  0
  3  4  1  0
  4  5  1  0
  5  6  1  0
  7  4  1  6
  7  8  1  0
  8  9  1  6
  9 14  1  0
  9 10  1  0
 10 11  1  0
 11 12  1  0
 12 13  1  0
 13 14  1  0
  8 15  1  0
 15 20  1  0
 15 16  2  0
 16 17  1  0
 17 18  2  0
 18 19  1  0
 19 20  2  0
  7 21  1  0
 21 26  1  0
 21 22  2  0
 22 23  1  0
 23 24  2  0
 24 25  1  0
 25 26  2  0
M  END
>  <SMILES>  (729) 
c1ccc([C@H]([C@@H](c2ccccc2)N2CCCCC2)N2CCCCC2)cc1

>  <CollectionName>  (729) 
chembl

>  <LOG PLASMA PROTEIN BINDING (RAT) (% unbound)>  (729) 
1.56264967221

>  <Internal ID>  (729) 


>  <Source>  (729) 
AstraZeneca

$$$$
CHEMBL2152525
     RDKit          2D

 24 27  0  0  1  0  0  0  0  0999 V2000
    1.8638    5.5869    0.0000 C   0  0  0  0  0  0  0  0  0  0  0  0
    0.8623    5.5869    0.0000 C   0  0  0  0  0  0  0  0  0  0  0  0
    0.5505    4.6350    0.0000 C   0  0  0  0  0  0  0  0  0  0  0  0
    1.3630    4.0441    0.0000 N   0  0  0  0  0  0  0  0  0  0  0  0
    2.1703    4.6350    0.0000 C   0  0  0  0  0  0  0  0  0  0  0  0
    1.3645    3.0441    0.0000 C   0  0  0  0  0  0  0  0  0  0  0  0
    0.4993    2.5428    0.0000 C   0  0  0  0  0  0  0  0  0  0  0  0
    0.5008    1.5428    0.0000 N   0  0  0  0  0  0  0  0  0  0  0  0
   -0.3065    0.9519    0.0000 C   0  0  0  0  0  0  0  0  0  0  0  0
    0.0000    0.0000    0.0000 C   0  0  0  0  0  0  0  0  0  0  0  0
    1.0015    0.0000    0.0000 C   0  0  0  0  0  0  0  0  0  0  0  0
    1.3133    0.9519    0.0000 C   0  0  0  0  0  0  0  0  0  0  0  0
   -0.3675    3.0415    0.0000 C   0  0  0  0  0  0  0  0  0  0  0  0
   -1.2358    2.5350    0.0000 C   0  0  0  0  0  0  0  0  0  0  0  0
   -2.1026    3.0336    0.0000 C   0  0  0  0  0  0  0  0  0  0  0  0
   -2.1100    4.0336    0.0000 C   0  0  0  0  0  0  0  0  0  0  0  0
   -1.2417    4.5401    0.0000 C   0  0  0  0  0  0  0  0  0  0  0  0
   -0.3661    4.0466    0.0000 C   0  0  0  0  0  0  0  0  0  0  0  0
    2.2313    2.5454    0.0000 C   0  0  0  0  0  0  0  0  0  0  0  0
    3.0996    3.0519    0.0000 C   0  0  0  0  0  0  0  0  0  0  0  0
    3.9664    2.5533    0.0000 C   0  0  0  0  0  0  0  0  0  0  0  0
    3.9738    1.5533    0.0000 C   0  0  0  0  0  0  0  0  0  0  0  0
    3.1055    1.0468    0.0000 C   0  0  0  0  0  0  0  0  0  0  0  0
    2.2299    1.5403    0.0000 C   0  0  0  0  0  0  0  0  0  0  0  0
  1  5  1  0
  1  2  1  0
  2  3  1  0
  3  4  1  0
  4  5  1  0
  6  4  1  6
  6  7  1  0
  7  8  1  6
  8 12  1  0
  8  9  1  0
  9 10  1  0
 10 11  1  0
 11 12  1  0
  7 13  1  0
 13 18  1  0
 13 14  2  0
 14 15  1  0
 15 16  2  0
 16 17  1  0
 17 18  2  0
  6 19  1  0
 19 24  1  0
 19 20  2  0
 20 21  1  0
 21 22  2  0
 22 23  1  0
 23 24  2  0
M  END
>  <SMILES>  (730) 
c1ccc([C@H]([C@@H](c2ccccc2)N2CCCC2)N2CCCC2)cc1

>  <CollectionName>  (730) 
chembl

>  <LOG PLASMA PROTEIN BINDING (RAT) (% unbound)>  (730) 
1.5301996982

>  <Internal ID>  (730) 


>  <Source>  (730) 
AstraZeneca

$$$$
CHEMBL2164360
     RDKit          2D

 34 37  0  0  1  0  0  0  0  0999 V2000
    4.7859   -1.3695    0.0000 C   0  0  0  0  0  0  0  0  0  0  0  0
    4.2858   -0.5035    0.0000 C   0  0  0  0  0  0  0  0  0  0  0  0
    4.7857    0.3625    0.0000 C   0  0  0  0  0  0  0  0  0  0  0  0
    5.7857    0.3626    0.0000 C   0  0  0  0  0  0  0  0  0  0  0  0
    6.2857    1.2346    0.0000 C   0  0  0  0  0  0  0  0  0  0  0  0
    7.2858    1.2347    0.0000 C   0  0  0  0  0  0  0  0  0  0  0  0
    7.7909    0.3716    0.0000 C   0  0  0  0  0  0  0  0  0  0  0  0
    7.2909   -0.5004    0.0000 C   0  0  0  0  0  0  0  0  0  0  0  0
    6.2858   -0.5094    0.0000 N   0  0  0  0  0  0  0  0  0  0  0  0
    3.2858   -0.5036    0.0000 N   0  0  0  0  0  0  0  0  0  0  0  0
    2.6938    0.3110    0.0000 C   0  0  0  0  0  0  0  0  0  0  0  0
    3.0029    1.2620    0.0000 C   0  0  0  0  0  0  0  0  0  0  0  0
    2.3337    2.0052    0.0000 O   0  0  0  0  0  0  0  0  0  0  0  0
    3.9810    1.4699    0.0000 N   0  0  0  0  0  0  0  0  0  0  0  0
    4.2901    2.4210    0.0000 C   0  0  0  0  0  0  0  0  0  0  0  0
    3.6209    3.1641    0.0000 C   0  0  0  0  0  0  0  0  0  0  0  0
    2.6425    2.9577    0.0000 C   0  0  0  0  0  0  0  0  0  0  0  0
    1.9701    3.6979    0.0000 C   0  0  0  0  0  0  0  0  0  0  0  0
    2.2794    4.6544    0.0000 C   0  0  0  0  0  0  0  0  0  0  0  0
    1.6070    5.3946    0.0000 O   0  0  0  0  0  0  0  0  0  0  0  0
    1.9119    6.3470    0.0000 C   0  0  0  0  0  0  0  0  0  0  0  0
    2.8643    6.0421    0.0000 F   0  0  0  0  0  0  0  0  0  0  0  0
    0.9595    6.6519    0.0000 F   0  0  0  0  0  0  0  0  0  0  0  0
    2.2167    7.2994    0.0000 F   0  0  0  0  0  0  0  0  0  0  0  0
    3.2610    4.8706    0.0000 C   0  0  0  0  0  0  0  0  0  0  0  0
    3.9302    4.1206    0.0000 C   0  0  0  0  0  0  0  0  0  0  0  0
    1.7360   -0.0000    0.0000 C   0  0  0  0  0  0  0  0  0  0  0  0
    0.8680    0.5079    0.0000 C   0  0  0  0  0  0  0  0  0  0  0  0
    0.0000    0.0000    0.0000 C   0  0  0  0  0  0  0  0  0  0  0  0
    0.0000   -1.0058    0.0000 C   0  0  0  0  0  0  0  0  0  0  0  0
    0.8680   -1.5037    0.0000 C   0  0  0  0  0  0  0  0  0  0  0  0
    1.7360   -1.0071    0.0000 C   0  0  0  0  0  0  0  0  0  0  0  0
    2.6938   -1.3184    0.0000 C   0  0  0  0  0  0  0  0  0  0  0  0
    3.0028   -2.2695    0.0000 O   0  0  0  0  0  0  0  0  0  0  0  0
  1  2  1  0
  2  3  1  0
  3  4  1  0
  4  9  1  0
  4  5  2  0
  5  6  1  0
  6  7  2  0
  7  8  1  0
  8  9  2  0
  2 10  1  0
 10 33  1  0
 10 11  1  0
 11 12  1  0
 12 13  2  0
 12 14  1  0
 14 15  1  0
 15 16  1  0
 16 26  1  0
 16 17  2  0
 17 18  1  0
 18 19  2  0
 19 20  1  0
 20 21  1  0
 21 22  1  0
 21 23  1  0
 21 24  1  0
 19 25  1  0
 25 26  2  0
 11 27  1  0
 27 32  1  0
 27 28  2  0
 28 29  1  0
 29 30  2  0
 30 31  1  0
 31 32  2  0
 32 33  1  0
 33 34  2  0
M  END
>  <SMILES>  (731) 
CC(Cc1ccccn1)N1C(=O)c2ccccc2C1C(=O)NCc1ccc(OC(F)(F)F)cc1

>  <CollectionName>  (731) 
chembl

>  <LOG PLASMA PROTEIN BINDING (RAT) (% unbound)>  (731) 
0.563481085394

>  <Internal ID>  (731) 


>  <Source>  (731) 
AstraZeneca

$$$$
CHEMBL2165054
     RDKit          2D

 35 39  0  0  1  0  0  0  0  0999 V2000
    1.7632    7.0292    0.0000 C   0  0  0  0  0  0  0  0  0  0  0  0
    1.7589    6.0292    0.0000 O   0  0  0  0  0  0  0  0  0  0  0  0
    2.6227    5.5254    0.0000 C   0  0  0  0  0  0  0  0  0  0  0  0
    2.6198    4.5202    0.0000 C   0  0  0  0  0  0  0  0  0  0  0  0
    3.4858    4.0100    0.0000 N   0  0  0  0  0  0  0  0  0  0  0  0
    3.4829    3.0100    0.0000 C   0  0  0  0  0  0  0  0  0  0  0  0
    2.6154    2.5125    0.0000 C   0  0  0  0  0  0  0  0  0  0  0  0
    2.6125    1.5125    0.0000 N   0  0  0  0  0  0  0  0  0  0  0  0
    3.4848    1.0014    0.0000 C   0  0  0  0  0  0  0  0  0  0  0  0
    4.3535    1.4968    0.0000 O   0  0  0  0  0  0  0  0  0  0  0  0
    3.4805   -0.0073    0.0000 C   0  0  0  0  0  0  0  0  0  0  0  0
    2.6039   -0.5053    0.0000 C   0  0  0  0  0  0  0  0  0  0  0  0
    1.7371   -0.0000    0.0000 C   0  0  0  0  0  0  0  0  0  0  0  0
    0.8707   -0.4993    0.0000 C   0  0  0  0  0  0  0  0  0  0  0  0
    0.0000    0.0000    0.0000 C   0  0  0  0  0  0  0  0  0  0  0  0
    0.0000    1.0089    0.0000 C   0  0  0  0  0  0  0  0  0  0  0  0
    0.8707    1.5185    0.0000 C   0  0  0  0  0  0  0  0  0  0  0  0
    1.7414    1.0089    0.0000 C   0  0  0  0  0  0  0  0  0  0  0  0
   -0.8675    1.5063    0.0000 C   0  0  0  0  0  0  0  0  0  0  0  0
   -1.7350    2.0038    0.0000 N   0  0  0  0  0  0  0  0  0  0  0  0
    4.3548    4.5151    0.0000 C   0  0  0  0  0  0  0  0  0  0  0  0
    4.3577    5.5203    0.0000 C   0  0  0  0  0  0  0  0  0  0  0  0
    3.4917    6.0204    0.0000 C   0  0  0  0  0  0  0  0  0  0  0  0
    3.4946    7.0204    0.0000 N   0  0  0  0  0  0  0  0  0  0  0  0
    2.6300    7.5229    0.0000 C   0  0  0  0  0  0  0  0  0  0  0  0
    2.6329    8.5229    0.0000 C   0  0  0  0  0  0  0  0  0  0  0  0
    1.7621    9.0257    0.0000 C   0  0  0  0  0  0  0  0  0  0  0  0
    1.7738   10.0311    0.0000 C   0  0  0  0  0  0  0  0  0  0  0  0
    0.9052   10.5323    0.0000 O   0  0  0  0  0  0  0  0  0  0  0  0
    0.9118   11.5400    0.0000 C   0  0  0  0  0  0  0  0  0  0  0  0
    1.7850   12.0389    0.0000 C   0  0  0  0  0  0  0  0  0  0  0  0
    2.6515   11.5301    0.0000 O   0  0  0  0  0  0  0  0  0  0  0  0
    2.6470   10.5300    0.0000 C   0  0  0  0  0  0  0  0  0  0  0  0
    3.5098   10.0212    0.0000 C   0  0  0  0  0  0  0  0  0  0  0  0
    3.5068    9.0207    0.0000 N   0  0  0  0  0  0  0  0  0  0  0  0
  1  2  1  0
  3  2  1  6
  3 23  1  0
  3  4  1  0
  4  5  1  0
  5  6  1  0
  6  7  1  0
  7  8  1  0
  8 18  1  0
  8  9  1  0
  9 10  2  0
  9 11  1  0
 11 12  2  0
 12 13  1  0
 13 18  2  0
 13 14  1  0
 14 15  2  0
 15 16  1  0
 16 17  2  0
 17 18  1  0
 16 19  1  0
 19 20  3  0
  5 21  1  0
 21 22  1  0
 22 23  1  0
 23 24  1  6
 24 25  1  0
 25 26  1  0
 26 35  1  0
 26 27  2  0
 27 28  1  0
 28 33  2  0
 28 29  1  0
 29 30  1  0
 30 31  1  0
 31 32  1  0
 32 33  1  0
 33 34  1  0
 34 35  2  0
M  END
>  <SMILES>  (732) 
CO[C@H]1CN(CCn2c(=O)ccc3ccc(C#N)cc32)CC[C@H]1NCc1cc2c(cn1)OCCO2

>  <CollectionName>  (732) 
chembl

>  <LOG PLASMA PROTEIN BINDING (RAT) (% unbound)>  (732) 
1.86811520533

>  <Internal ID>  (732) 


>  <Source>  (732) 
AstraZeneca

$$$$
CHEMBL2177173
     RDKit          2D

 38 42  0  0  0  0  0  0  0  0999 V2000
    4.3483   -9.5230    0.0000 C   0  0  0  0  0  0  0  0  0  0  0  0
    4.3483   -8.5230    0.0000 N   0  0  0  0  0  0  0  0  0  0  0  0
    3.4808   -8.0256    0.0000 C   0  0  0  0  0  0  0  0  0  0  0  0
    3.4807   -7.0204    0.0000 C   0  0  0  0  0  0  0  0  0  0  0  0
    4.3482   -6.5126    0.0000 N   0  0  0  0  0  0  0  0  0  0  0  0
    5.2157   -7.0203    0.0000 C   0  0  0  0  0  0  0  0  0  0  0  0
    5.2158   -8.0255    0.0000 C   0  0  0  0  0  0  0  0  0  0  0  0
    4.3481   -5.5126    0.0000 S   0  0  0  0  0  0  0  0  0  0  0  0
    5.3481   -5.5126    0.0000 O   0  0  0  0  0  0  0  0  0  0  0  0
    3.3481   -5.5127    0.0000 O   0  0  0  0  0  0  0  0  0  0  0  0
    4.3481   -4.5126    0.0000 C   0  0  0  0  0  0  0  0  0  0  0  0
    3.4761   -4.0127    0.0000 C   0  0  0  0  0  0  0  0  0  0  0  0
    3.4760   -3.0126    0.0000 C   0  0  0  0  0  0  0  0  0  0  0  0
    4.3391   -2.5075    0.0000 C   0  0  0  0  0  0  0  0  0  0  0  0
    5.2111   -3.0075    0.0000 C   0  0  0  0  0  0  0  0  0  0  0  0
    5.2200   -4.0126    0.0000 C   0  0  0  0  0  0  0  0  0  0  0  0
    4.3346   -1.5075    0.0000 C   0  0  0  0  0  0  0  0  0  0  0  0
    5.2044   -1.0036    0.0000 C   0  0  0  0  0  0  0  0  0  0  0  0
    5.2000   -0.0036    0.0000 N   0  0  0  0  0  0  0  0  0  0  0  0
    4.3346    0.4976    0.0000 C   0  0  0  0  0  0  0  0  0  0  0  0
    4.3346    1.4976    0.0000 N   0  0  0  0  0  0  0  0  0  0  0  0
    3.4648   -0.0063    0.0000 C   0  0  0  0  0  0  0  0  0  0  0  0
    3.4604   -1.0114    0.0000 N   0  0  0  0  0  0  0  0  0  0  0  0
    2.5995    0.4950    0.0000 C   0  0  0  0  0  0  0  0  0  0  0  0
    2.6010    1.4950    0.0000 O   0  0  0  0  0  0  0  0  0  0  0  0
    1.7328   -0.0038    0.0000 N   0  0  0  0  0  0  0  0  0  0  0  0
    0.8675    0.4975    0.0000 C   0  0  0  0  0  0  0  0  0  0  0  0
    0.8675    1.5027    0.0000 C   0  0  0  0  0  0  0  0  0  0  0  0
   -0.0000    2.0104    0.0000 N   0  0  0  0  0  0  0  0  0  0  0  0
   -0.8675    1.5027    0.0000 C   0  0  0  0  0  0  0  0  0  0  0  0
   -0.8675    0.4975    0.0000 C   0  0  0  0  0  0  0  0  0  0  0  0
    0.0000    0.0000    0.0000 C   0  0  0  0  0  0  0  0  0  0  0  0
    0.0000   -1.0000    0.0000 C   0  0  0  0  0  0  0  0  0  0  0  0
    0.8660   -1.5000    0.0000 N   0  0  0  0  0  0  0  0  0  0  0  0
    0.9726   -2.4948    0.0000 C   0  0  0  0  0  0  0  0  0  0  0  0
    1.9499   -2.7068    0.0000 C   0  0  0  0  0  0  0  0  0  0  0  0
    2.4520   -1.8402    0.0000 C   0  0  0  0  0  0  0  0  0  0  0  0
    1.7846   -1.0932    0.0000 C   0  0  0  0  0  0  0  0  0  0  0  0
  1  2  1  0
  2  7  1  0
  2  3  1  0
  3  4  1  0
  4  5  1  0
  5  6  1  0
  6  7  1  0
  5  8  1  0
  8  9  2  0
  8 10  2  0
  8 11  1  0
 11 16  1  0
 11 12  2  0
 12 13  1  0
 13 14  2  0
 14 15  1  0
 15 16  2  0
 14 17  1  0
 17 23  1  0
 17 18  2  0
 18 19  1  0
 19 20  2  0
 20 21  1  0
 20 22  1  0
 22 23  2  0
 22 24  1  0
 24 25  2  0
 24 26  1  0
 26 27  1  0
 27 32  1  0
 27 28  2  0
 28 29  1  0
 29 30  2  0
 30 31  1  0
 31 32  2  0
 32 33  1  0
 33 34  1  0
 34 38  1  0
 34 35  1  0
 35 36  1  0
 36 37  1  0
 37 38  1  0
M  END
>  <SMILES>  (733) 
CN1CCN(S(=O)(=O)c2ccc(-c3cnc(N)c(C(=O)Nc4cnccc4CN4CCCC4)n3)cc2)CC1

>  <CollectionName>  (733) 
chembl

>  <LOG PLASMA PROTEIN BINDING (RAT) (% unbound)>  (733) 
0.994756944588

>  <Internal ID>  (733) 


>  <Source>  (733) 
AstraZeneca

$$$$
CHEMBL2177757
     RDKit          2D

 35 38  0  0  0  0  0  0  0  0999 V2000
   -2.0364    1.9561    0.0000 O   0  0  0  0  0  0  0  0  0  0  0  0
   -2.7793    1.2867    0.0000 C   0  0  0  0  0  0  0  0  0  0  0  0
   -3.7305    1.5953    0.0000 C   0  0  0  0  0  0  0  0  0  0  0  0
   -3.9388    2.5734    0.0000 C   0  0  0  0  0  0  0  0  0  0  0  0
   -4.8958    2.8808    0.0000 C   0  0  0  0  0  0  0  0  0  0  0  0
   -5.1042    3.8589    0.0000 C   0  0  0  0  0  0  0  0  0  0  0  0
   -4.3652    4.5327    0.0000 C   0  0  0  0  0  0  0  0  0  0  0  0
   -3.4082    4.2253    0.0000 C   0  0  0  0  0  0  0  0  0  0  0  0
   -3.1901    3.2441    0.0000 C   0  0  0  0  0  0  0  0  0  0  0  0
   -2.5710    0.3086    0.0000 N   0  0  0  0  0  0  0  0  0  0  0  0
   -1.6198   -0.0000    0.0000 C   0  0  0  0  0  0  0  0  0  0  0  0
   -1.3133   -0.9518    0.0000 N   0  0  0  0  0  0  0  0  0  0  0  0
   -0.3118   -0.9518    0.0000 N   0  0  0  0  0  0  0  0  0  0  0  0
    0.0000    0.0000    0.0000 C   0  0  0  0  0  0  0  0  0  0  0  0
    0.9515    0.3077    0.0000 C   0  0  0  0  0  0  0  0  0  0  0  0
    1.6937   -0.3625    0.0000 C   0  0  0  0  0  0  0  0  0  0  0  0
    2.6452   -0.0548    0.0000 S   0  0  0  0  0  0  0  0  0  0  0  0
    3.3874   -0.7250    0.0000 C   0  0  0  0  0  0  0  0  0  0  0  0
    4.3389   -0.4173    0.0000 C   0  0  0  0  0  0  0  0  0  0  0  0
    5.0811   -1.0875    0.0000 C   0  0  0  0  0  0  0  0  0  0  0  0
    6.0613   -0.8816    0.0000 N   0  0  0  0  0  0  0  0  0  0  0  0
    6.5620   -1.7489    0.0000 N   0  0  0  0  0  0  0  0  0  0  0  0
    5.8910   -2.4903    0.0000 C   0  0  0  0  0  0  0  0  0  0  0  0
    6.0993   -3.4683    0.0000 N   0  0  0  0  0  0  0  0  0  0  0  0
    5.3564   -4.1378    0.0000 C   0  0  0  0  0  0  0  0  0  0  0  0
    4.4052   -3.8291    0.0000 O   0  0  0  0  0  0  0  0  0  0  0  0
    5.5647   -5.1158    0.0000 C   0  0  0  0  0  0  0  0  0  0  0  0
    4.8219   -5.7852    0.0000 C   0  0  0  0  0  0  0  0  0  0  0  0
    5.0342   -6.7678    0.0000 C   0  0  0  0  0  0  0  0  0  0  0  0
    4.2913   -7.4373    0.0000 C   0  0  0  0  0  0  0  0  0  0  0  0
    3.3383   -7.1342    0.0000 C   0  0  0  0  0  0  0  0  0  0  0  0
    3.1260   -6.1517    0.0000 C   0  0  0  0  0  0  0  0  0  0  0  0
    3.8667   -5.4722    0.0000 C   0  0  0  0  0  0  0  0  0  0  0  0
    4.9757   -2.0865    0.0000 S   0  0  0  0  0  0  0  0  0  0  0  0
   -0.8125    0.5908    0.0000 S   0  0  0  0  0  0  0  0  0  0  0  0
  1  2  2  0
  2  3  1  0
  3  4  1  0
  4  9  1  0
  4  5  2  0
  5  6  1  0
  6  7  2  0
  7  8  1  0
  8  9  2  0
  2 10  1  0
 10 11  1  0
 11 35  1  0
 11 12  2  0
 12 13  1  0
 13 14  2  0
 14 15  1  0
 15 16  1  0
 16 17  1  0
 17 18  1  0
 18 19  1  0
 19 20  1  0
 20 34  1  0
 20 21  2  0
 21 22  1  0
 22 23  2  0
 23 24  1  0
 24 25  1  0
 25 26  2  0
 25 27  1  0
 27 28  1  0
 28 33  1  0
 28 29  2  0
 29 30  1  0
 30 31  2  0
 31 32  1  0
 32 33  2  0
 23 34  1  0
 14 35  1  0
M  END
>  <SMILES>  (734) 
O=C(Cc1ccccc1)Nc1nnc(CCSCCc2nnc(NC(=O)Cc3ccccc3)s2)s1

>  <CollectionName>  (734) 
chembl

>  <LOG PLASMA PROTEIN BINDING (RAT) (% unbound)>  (734) 
-0.376750709602

>  <Internal ID>  (734) 


>  <Source>  (734) 
AstraZeneca

$$$$
CHEMBL2180024
     RDKit          2D

 26 29  0  0  1  0  0  0  0  0999 V2000
    4.0460    3.0574    0.0000 C   0  0  0  0  0  0  0  0  0  0  0  0
    4.3484    2.1042    0.0000 C   0  0  0  0  0  0  0  0  0  0  0  0
    3.7552    1.2973    0.0000 N   0  0  0  0  0  0  0  0  0  0  0  0
    4.3375    0.4822    0.0000 C   0  0  0  0  0  0  0  0  0  0  0  0
    5.2948    0.7869    0.0000 N   0  0  0  0  0  0  0  0  0  0  0  0
    5.2969    1.7873    0.0000 C   0  0  0  0  0  0  0  0  0  0  0  0
    6.1089    2.3709    0.0000 N   0  0  0  0  0  0  0  0  0  0  0  0
    5.0385   -1.1212    0.0000 C   0  0  0  0  0  0  0  0  0  0  0  0
    4.4464   -1.9272    0.0000 C   0  0  0  0  0  0  0  0  0  0  0  0
    4.8431   -2.8452    0.0000 C   0  0  0  0  0  0  0  0  0  0  0  0
    5.8419   -2.9584    0.0000 C   0  0  0  0  0  0  0  0  0  0  0  0
    6.2384   -3.8764    0.0000 F   0  0  0  0  0  0  0  0  0  0  0  0
    6.4441   -2.1536    0.0000 C   0  0  0  0  0  0  0  0  0  0  0  0
    6.0373   -1.2345    0.0000 C   0  0  0  0  0  0  0  0  0  0  0  0
    3.4678   -0.0114    0.0000 C   0  0  0  0  0  0  0  0  0  0  0  0
    3.4634   -1.0166    0.0000 C   0  0  0  0  0  0  0  0  0  0  0  0
    2.5937   -1.5103    0.0000 C   0  0  0  0  0  0  0  0  0  0  0  0
    1.7284   -1.0089    0.0000 C   0  0  0  0  0  0  0  0  0  0  0  0
    1.7328   -0.0038    0.0000 C   0  0  0  0  0  0  0  0  0  0  0  0
    2.6025    0.5001    0.0000 C   0  0  0  0  0  0  0  0  0  0  0  0
    0.8675    0.4975    0.0000 C   0  0  0  0  0  0  0  0  0  0  0  0
    0.0000    0.0000    0.0000 C   0  0  0  0  0  0  0  0  0  0  0  0
   -0.8675    0.4975    0.0000 C   0  0  0  0  0  0  0  0  0  0  0  0
   -0.8675    1.5027    0.0000 C   0  0  0  0  0  0  0  0  0  0  0  0
   -0.0000    2.0104    0.0000 N   0  0  0  0  0  0  0  0  0  0  0  0
    0.8675    1.5027    0.0000 C   0  0  0  0  0  0  0  0  0  0  0  0
  1  2  1  0
  2  6  1  0
  2  3  2  0
  3  4  1  0
  4  5  1  0
  5  6  2  0
  6  7  1  0
  4  8  1  0
  8 14  1  0
  8  9  2  0
  9 10  1  0
 10 11  2  0
 11 12  1  0
 11 13  1  0
 13 14  2  0
  4 15  1  0
 15 20  1  0
 15 16  2  0
 16 17  1  0
 17 18  2  0
 18 19  1  0
 19 20  2  0
 19 21  1  0
 21 26  1  0
 21 22  2  0
 22 23  1  0
 23 24  2  0
 24 25  1  0
 25 26  2  0
M  END
>  <SMILES>  (735) 
CC1=NC(c2ccc(F)cc2)(c2cccc(-c3cccnc3)c2)N=C1N

>  <CollectionName>  (735) 
chembl

>  <LOG PLASMA PROTEIN BINDING (RAT) (% unbound)>  (735) 
0.940516484933

>  <Internal ID>  (735) 


>  <Source>  (735) 
AstraZeneca

$$$$
CHEMBL81
     RDKit          2D

 34 38  0  0  0  0  0  0  0  0999 V2000
    8.9490    6.8956    0.0000 O   0  0  0  0  0  0  0  0  0  0  0  0
    7.9979    7.2045    0.0000 C   0  0  0  0  0  0  0  0  0  0  0  0
    7.2530    6.5296    0.0000 C   0  0  0  0  0  0  0  0  0  0  0  0
    6.3018    6.8385    0.0000 C   0  0  0  0  0  0  0  0  0  0  0  0
    6.0881    7.8154    0.0000 C   0  0  0  0  0  0  0  0  0  0  0  0
    6.8331    8.4903    0.0000 C   0  0  0  0  0  0  0  0  0  0  0  0
    7.7917    8.1883    0.0000 C   0  0  0  0  0  0  0  0  0  0  0  0
    5.1357    8.1201    0.0000 C   0  0  0  0  0  0  0  0  0  0  0  0
    4.8201    9.0764    0.0000 S   0  0  0  0  0  0  0  0  0  0  0  0
    3.8131    9.0720    0.0000 C   0  0  0  0  0  0  0  0  0  0  0  0
    3.1412    9.8204    0.0000 C   0  0  0  0  0  0  0  0  0  0  0  0
    2.1596    9.6011    0.0000 C   0  0  0  0  0  0  0  0  0  0  0  0
    1.4850   10.3393    0.0000 O   0  0  0  0  0  0  0  0  0  0  0  0
    1.8531    8.6432    0.0000 C   0  0  0  0  0  0  0  0  0  0  0  0
    2.5281    7.9045    0.0000 C   0  0  0  0  0  0  0  0  0  0  0  0
    3.5061    8.1129    0.0000 C   0  0  0  0  0  0  0  0  0  0  0  0
    4.3235    7.5245    0.0000 C   0  0  0  0  0  0  0  0  0  0  0  0
    4.3279    6.5245    0.0000 C   0  0  0  0  0  0  0  0  0  0  0  0
    5.1961    6.0283    0.0000 O   0  0  0  0  0  0  0  0  0  0  0  0
    3.4641    6.0207    0.0000 C   0  0  0  0  0  0  0  0  0  0  0  0
    2.5951    6.5157    0.0000 C   0  0  0  0  0  0  0  0  0  0  0  0
    1.7291    6.0156    0.0000 C   0  0  0  0  0  0  0  0  0  0  0  0
    1.7321    5.0104    0.0000 C   0  0  0  0  0  0  0  0  0  0  0  0
    0.8660    4.5104    0.0000 O   0  0  0  0  0  0  0  0  0  0  0  0
    0.8660    3.5104    0.0000 C   0  0  0  0  0  0  0  0  0  0  0  0
   -0.0000    3.0104    0.0000 C   0  0  0  0  0  0  0  0  0  0  0  0
   -0.0000    2.0104    0.0000 N   0  0  0  0  0  0  0  0  0  0  0  0
   -0.8675    1.5027    0.0000 C   0  0  0  0  0  0  0  0  0  0  0  0
   -0.8675    0.4975    0.0000 C   0  0  0  0  0  0  0  0  0  0  0  0
    0.0000    0.0000    0.0000 C   0  0  0  0  0  0  0  0  0  0  0  0
    0.8675    0.4975    0.0000 C   0  0  0  0  0  0  0  0  0  0  0  0
    0.8675    1.5027    0.0000 C   0  0  0  0  0  0  0  0  0  0  0  0
    2.6010    4.5053    0.0000 C   0  0  0  0  0  0  0  0  0  0  0  0
    3.4670    5.0155    0.0000 C   0  0  0  0  0  0  0  0  0  0  0  0
  1  2  1  0
  2  7  2  0
  2  3  1  0
  3  4  2  0
  4  5  1  0
  5  6  2  0
  6  7  1  0
  5  8  1  0
  8 17  2  0
  8  9  1  0
  9 10  1  0
 10 16  2  0
 10 11  1  0
 11 12  2  0
 12 13  1  0
 12 14  1  0
 14 15  2  0
 15 16  1  0
 16 17  1  0
 17 18  1  0
 18 19  2  0
 18 20  1  0
 20 34  1  0
 20 21  2  0
 21 22  1  0
 22 23  2  0
 23 24  1  0
 24 25  1  0
 25 26  1  0
 26 27  1  0
 27 32  1  0
 27 28  1  0
 28 29  1  0
 29 30  1  0
 30 31  1  0
 31 32  1  0
 23 33  1  0
 33 34  2  0
M  END
>  <SMILES>  (736) 
O=C(c1ccc(OCCN2CCCCC2)cc1)c1c(-c2ccc(O)cc2)sc2cc(O)ccc12

>  <CollectionName>  (736) 
chembl

>  <LOG PLASMA PROTEIN BINDING (RAT) (% unbound)>  (736) 
-0.301029995664

>  <Internal ID>  (736) 


>  <Source>  (736) 
AstraZeneca

$$$$
CHEMBL10188
     RDKit          2D

 29 32  0  0  1  0  0  0  0  0999 V2000
    4.3136   -4.5149    0.0000 C   0  0  0  0  0  0  0  0  0  0  0  0
    4.3192   -3.5149    0.0000 C   0  0  0  0  0  0  0  0  0  0  0  0
    3.4560   -3.0101    0.0000 C   0  0  0  0  0  0  0  0  0  0  0  0
    3.4615   -2.0101    0.0000 N   0  0  0  0  0  0  0  0  0  0  0  0
    2.5983   -1.5053    0.0000 C   0  0  0  0  0  0  0  0  0  0  0  0
    1.7295   -2.0004    0.0000 O   0  0  0  0  0  0  0  0  0  0  0  0
    2.6039   -0.5053    0.0000 C   0  0  0  0  0  0  0  0  0  0  0  0
    3.4805   -0.0073    0.0000 C   0  0  0  0  0  0  0  0  0  0  0  0
    4.3437   -0.5122    0.0000 O   0  0  0  0  0  0  0  0  0  0  0  0
    3.4848    1.0014    0.0000 C   0  0  0  0  0  0  0  0  0  0  0  0
    2.6125    1.5125    0.0000 N   0  0  0  0  0  0  0  0  0  0  0  0
    1.7414    1.0089    0.0000 C   0  0  0  0  0  0  0  0  0  0  0  0
    0.8707    1.5185    0.0000 C   0  0  0  0  0  0  0  0  0  0  0  0
    0.0000    1.0089    0.0000 C   0  0  0  0  0  0  0  0  0  0  0  0
    0.0000    0.0000    0.0000 C   0  0  0  0  0  0  0  0  0  0  0  0
    0.8707   -0.4993    0.0000 C   0  0  0  0  0  0  0  0  0  0  0  0
    1.7371    0.0000    0.0000 C   0  0  0  0  0  0  0  0  0  0  0  0
    4.3535    1.4968    0.0000 C   0  0  0  0  0  0  0  0  0  0  0  0
    4.3559    2.5020    0.0000 C   0  0  0  0  0  0  0  0  0  0  0  0
    5.2246    2.9974    0.0000 C   0  0  0  0  0  0  0  0  0  0  0  0
    6.0909    2.4978    0.0000 C   0  0  0  0  0  0  0  0  0  0  0  0
    6.0885    1.4926    0.0000 C   0  0  0  0  0  0  0  0  0  0  0  0
    5.2198    0.9870    0.0000 C   0  0  0  0  0  0  0  0  0  0  0  0
    2.5872   -3.5053    0.0000 C   0  0  0  0  0  0  0  0  0  0  0  0
    2.5845   -4.5104    0.0000 C   0  0  0  0  0  0  0  0  0  0  0  0
    1.7157   -5.0057    0.0000 C   0  0  0  0  0  0  0  0  0  0  0  0
    0.8495   -4.5059    0.0000 C   0  0  0  0  0  0  0  0  0  0  0  0
    0.8522   -3.5007    0.0000 C   0  0  0  0  0  0  0  0  0  0  0  0
    1.7210   -2.9953    0.0000 C   0  0  0  0  0  0  0  0  0  0  0  0
  1  2  1  0
  3  2  1  1
  3  4  1  0
  4  5  1  0
  5  6  2  0
  5  7  1  0
  7 17  1  0
  7  8  2  0
  8  9  1  0
  8 10  1  0
 10 11  2  0
 11 12  1  0
 12 17  2  0
 12 13  1  0
 13 14  2  0
 14 15  1  0
 15 16  2  0
 16 17  1  0
 10 18  1  0
 18 23  1  0
 18 19  2  0
 19 20  1  0
 20 21  2  0
 21 22  1  0
 22 23  2  0
  3 24  1  0
 24 29  1  0
 24 25  2  0
 25 26  1  0
 26 27  2  0
 27 28  1  0
 28 29  2  0
M  END
>  <SMILES>  (737) 
CC[C@H](NC(=O)c1c(O)c(-c2ccccc2)nc2ccccc12)c1ccccc1

>  <CollectionName>  (737) 
chembl

>  <LOG PLASMA PROTEIN BINDING (RAT) (% unbound)>  (737) 
-1.30102999566

>  <Internal ID>  (737) 


>  <Source>  (737) 
AstraZeneca

$$$$
CHEMBL376632
     RDKit          2D

 31 35  0  0  1  0  0  0  0  0999 V2000
   -0.8675    1.5026    0.0000 C   0  0  0  0  0  0  0  0  0  0  0  0
    0.0000    1.0052    0.0000 C   0  0  0  0  0  0  0  0  0  0  0  0
    0.0000    0.0000    0.0000 C   0  0  0  0  0  0  0  0  0  0  0  0
    0.8675   -0.4975    0.0000 C   0  0  0  0  0  0  0  0  0  0  0  0
    1.7350    0.0000    0.0000 N   0  0  0  0  0  0  0  0  0  0  0  0
    1.7350    1.0052    0.0000 C   0  0  0  0  0  0  0  0  0  0  0  0
    0.8675    1.5129    0.0000 N   0  0  0  0  0  0  0  0  0  0  0  0
    2.6025    1.5026    0.0000 N   0  0  0  0  0  0  0  0  0  0  0  0
    3.5161    1.0949    0.0000 C   0  0  0  0  0  0  0  0  0  0  0  0
    4.1905    1.8332    0.0000 C   0  0  0  0  0  0  0  0  0  0  0  0
    3.6936    2.7028    0.0000 N   0  0  0  0  0  0  0  0  0  0  0  0
    2.7125    2.5013    0.0000 C   0  0  0  0  0  0  0  0  0  0  0  0
    0.8675   -1.4975    0.0000 N   0  0  0  0  0  0  0  0  0  0  0  0
    0.0593   -2.0872    0.0000 C   0  0  0  0  0  0  0  0  0  0  0  0
    0.3643   -3.0395    0.0000 C   0  0  0  0  0  0  0  0  0  0  0  0
    1.3658   -3.0411    0.0000 C   0  0  0  0  0  0  0  0  0  0  0  0
    1.6791   -2.0896    0.0000 C   0  0  0  0  0  0  0  0  0  0  0  0
    2.6311   -1.7834    0.0000 C   0  0  0  0  0  0  0  0  0  0  0  0
    2.8419   -0.8059    0.0000 O   0  0  0  0  0  0  0  0  0  0  0  0
    3.3722   -2.4548    0.0000 N   0  0  0  0  0  0  0  0  0  0  0  0
    4.3242   -2.1486    0.0000 C   0  0  0  0  0  0  0  0  0  0  0  0
    5.0654   -2.8199    0.0000 C   0  0  0  0  0  0  0  0  0  0  0  0
    6.0173   -2.5137    0.0000 C   0  0  0  0  0  0  0  0  0  0  0  0
    6.7608   -3.1911    0.0000 C   0  0  0  0  0  0  0  0  0  0  0  0
    7.7134   -2.8847    0.0000 C   0  0  0  0  0  0  0  0  0  0  0  0
    7.9309   -1.9087    0.0000 C   0  0  0  0  0  0  0  0  0  0  0  0
    8.8061   -1.4103    0.0000 O   0  0  0  0  0  0  0  0  0  0  0  0
    8.6025   -0.4239    0.0000 C   0  0  0  0  0  0  0  0  0  0  0  0
    7.6016   -0.3129    0.0000 O   0  0  0  0  0  0  0  0  0  0  0  0
    7.1865   -1.2304    0.0000 C   0  0  0  0  0  0  0  0  0  0  0  0
    6.2265   -1.5300    0.0000 C   0  0  0  0  0  0  0  0  0  0  0  0
  1  2  1  0
  2  7  2  0
  2  3  1  0
  3  4  2  0
  4  5  1  0
  5  6  2  0
  6  7  1  0
  6  8  1  0
  8 12  1  0
  8  9  1  0
  9 10  2  0
 10 11  1  0
 11 12  2  0
  4 13  1  0
 13 17  1  0
 13 14  1  0
 14 15  1  0
 15 16  1  0
 16 17  1  0
 17 18  1  1
 18 19  2  0
 18 20  1  0
 20 21  1  0
 21 22  1  0
 22 23  1  0
 23 31  1  0
 23 24  2  0
 24 25  1  0
 25 26  2  0
 26 30  1  0
 26 27  1  0
 27 28  1  0
 28 29  1  0
 29 30  1  0
 30 31  2  0
M  END
>  <SMILES>  (738) 
Cc1cc(N2CCC[C@@H]2C(=O)NCCc2ccc3c(c2)OCO3)nc(-n2ccnc2)n1

>  <CollectionName>  (738) 
chembl

>  <LOG PLASMA PROTEIN BINDING (RAT) (% unbound)>  (738) 
1.34222522936

>  <Internal ID>  (738) 


>  <Source>  (738) 
AstraZeneca

$$$$
CHEMBL375293
     RDKit          2D

 24 27  0  0  0  0  0  0  0  0999 V2000
    1.7328   -0.0038    0.0000 N   0  0  0  0  0  0  0  0  0  0  0  0
    0.8675    0.4975    0.0000 C   0  0  0  0  0  0  0  0  0  0  0  0
    0.0000    0.0000    0.0000 C   0  0  0  0  0  0  0  0  0  0  0  0
   -0.8675    0.4975    0.0000 C   0  0  0  0  0  0  0  0  0  0  0  0
   -0.8675    1.5027    0.0000 C   0  0  0  0  0  0  0  0  0  0  0  0
   -0.0000    2.0104    0.0000 N   0  0  0  0  0  0  0  0  0  0  0  0
    0.8675    1.5027    0.0000 C   0  0  0  0  0  0  0  0  0  0  0  0
    2.5995    0.4950    0.0000 C   0  0  0  0  0  0  0  0  0  0  0  0
    3.4678   -0.0114    0.0000 N   0  0  0  0  0  0  0  0  0  0  0  0
    4.3345    0.4976    0.0000 C   0  0  0  0  0  0  0  0  0  0  0  0
    4.3330    1.5028    0.0000 C   0  0  0  0  0  0  0  0  0  0  0  0
    5.1976    2.0053    0.0000 C   0  0  0  0  0  0  0  0  0  0  0  0
    5.1917    3.0054    0.0000 C   0  0  0  0  0  0  0  0  0  0  0  0
    6.0608    3.5105    0.0000 C   0  0  0  0  0  0  0  0  0  0  0  0
    6.9357    3.0157    0.0000 N   0  0  0  0  0  0  0  0  0  0  0  0
    6.9327    2.0105    0.0000 C   0  0  0  0  0  0  0  0  0  0  0  0
    6.0637    1.5054    0.0000 N   0  0  0  0  0  0  0  0  0  0  0  0
    3.4648    1.9990    0.0000 C   0  0  0  0  0  0  0  0  0  0  0  0
    2.5980    1.5002    0.0000 N   0  0  0  0  0  0  0  0  0  0  0  0
    3.4633    2.9990    0.0000 C   0  0  0  0  0  0  0  0  0  0  0  0
    4.2746    3.5915    0.0000 O   0  0  0  0  0  0  0  0  0  0  0  0
    3.9593    4.5410    0.0000 C   0  0  0  0  0  0  0  0  0  0  0  0
    2.9593    4.5407    0.0000 C   0  0  0  0  0  0  0  0  0  0  0  0
    2.6526    3.5873    0.0000 C   0  0  0  0  0  0  0  0  0  0  0  0
  1  2  1  0
  2  7  1  0
  2  3  2  0
  3  4  1  0
  4  5  2  0
  5  6  1  0
  6  7  2  0
  1  8  1  0
  8 19  1  0
  8  9  2  0
  9 10  1  0
 10 11  2  0
 11 12  1  0
 12 17  1  0
 12 13  2  0
 13 14  1  0
 14 15  2  0
 15 16  1  0
 16 17  2  0
 11 18  1  0
 18 19  2  0
 18 20  1  0
 20 24  2  0
 20 21  1  0
 21 22  1  0
 22 23  2  0
 23 24  1  0
M  END
>  <SMILES>  (739) 
c1cncc(Nc2ncc(-c3ccncn3)c(-c3ccco3)n2)c1

>  <CollectionName>  (739) 
chembl

>  <LOG PLASMA PROTEIN BINDING (RAT) (% unbound)>  (739) 
1.14457420761

>  <Internal ID>  (739) 


>  <Source>  (739) 
AstraZeneca

$$$$
CHEMBL472
     RDKit          2D

 33 35  0  0  0  0  0  0  0  0999 V2000
   -3.4545   -3.0089    0.0000 C   0  0  0  0  0  0  0  0  0  0  0  0
   -3.4575   -2.0089    0.0000 O   0  0  0  0  0  0  0  0  0  0  0  0
   -4.3250   -1.5115    0.0000 C   0  0  0  0  0  0  0  0  0  0  0  0
   -5.1903   -2.0128    0.0000 C   0  0  0  0  0  0  0  0  0  0  0  0
   -6.0600   -1.5191    0.0000 C   0  0  0  0  0  0  0  0  0  0  0  0
   -6.0644   -0.5139    0.0000 C   0  0  0  0  0  0  0  0  0  0  0  0
   -6.9341   -0.0203    0.0000 Cl  0  0  0  0  0  0  0  0  0  0  0  0
   -5.1991   -0.0024    0.0000 C   0  0  0  0  0  0  0  0  0  0  0  0
   -4.3294   -0.5063    0.0000 C   0  0  0  0  0  0  0  0  0  0  0  0
   -3.4641   -0.0050    0.0000 C   0  0  0  0  0  0  0  0  0  0  0  0
   -3.4655    0.9950    0.0000 O   0  0  0  0  0  0  0  0  0  0  0  0
   -2.5973   -0.5038    0.0000 N   0  0  0  0  0  0  0  0  0  0  0  0
   -1.7320   -0.0025    0.0000 C   0  0  0  0  0  0  0  0  0  0  0  0
   -0.8653   -0.5013    0.0000 C   0  0  0  0  0  0  0  0  0  0  0  0
    0.0000    0.0000    0.0000 C   0  0  0  0  0  0  0  0  0  0  0  0
    0.8675   -0.4975    0.0000 C   0  0  0  0  0  0  0  0  0  0  0  0
    1.7350    0.0000    0.0000 C   0  0  0  0  0  0  0  0  0  0  0  0
    1.7350    1.0052    0.0000 C   0  0  0  0  0  0  0  0  0  0  0  0
    0.8675    1.5129    0.0000 C   0  0  0  0  0  0  0  0  0  0  0  0
   -0.0000    1.0052    0.0000 C   0  0  0  0  0  0  0  0  0  0  0  0
    2.6025    1.5026    0.0000 S   0  0  0  0  0  0  0  0  0  0  0  0
    2.1051    2.3701    0.0000 O   0  0  0  0  0  0  0  0  0  0  0  0
    3.0999    0.6351    0.0000 O   0  0  0  0  0  0  0  0  0  0  0  0
    3.4700    2.0001    0.0000 N   0  0  0  0  0  0  0  0  0  0  0  0
    3.4729    3.0001    0.0000 C   0  0  0  0  0  0  0  0  0  0  0  0
    2.6084    3.5026    0.0000 O   0  0  0  0  0  0  0  0  0  0  0  0
    4.3404    3.4975    0.0000 N   0  0  0  0  0  0  0  0  0  0  0  0
    4.3434    4.4975    0.0000 C   0  0  0  0  0  0  0  0  0  0  0  0
    3.4729    5.0001    0.0000 C   0  0  0  0  0  0  0  0  0  0  0  0
    3.4758    6.0001    0.0000 C   0  0  0  0  0  0  0  0  0  0  0  0
    4.3404    6.5027    0.0000 C   0  0  0  0  0  0  0  0  0  0  0  0
    5.2109    6.0001    0.0000 C   0  0  0  0  0  0  0  0  0  0  0  0
    5.2168    4.9949    0.0000 C   0  0  0  0  0  0  0  0  0  0  0  0
  1  2  1  0
  2  3  1  0
  3  9  2  0
  3  4  1  0
  4  5  2  0
  5  6  1  0
  6  7  1  0
  6  8  2  0
  8  9  1  0
  9 10  1  0
 10 11  2  0
 10 12  1  0
 12 13  1  0
 13 14  1  0
 14 15  1  0
 15 20  1  0
 15 16  2  0
 16 17  1  0
 17 18  2  0
 18 19  1  0
 19 20  2  0
 18 21  1  0
 21 22  2  0
 21 23  2  0
 21 24  1  0
 24 25  1  0
 25 26  2  0
 25 27  1  0
 27 28  1  0
 28 33  1  0
 28 29  1  0
 29 30  1  0
 30 31  1  0
 31 32  1  0
 32 33  1  0
M  END
>  <SMILES>  (740) 
COc1ccc(Cl)cc1C(=O)NCCc1ccc(S(=O)(=O)NC(=O)NC2CCCCC2)cc1

>  <CollectionName>  (740) 
chembl

>  <LOG PLASMA PROTEIN BINDING (RAT) (% unbound)>  (740) 
-0.920818753952

>  <Internal ID>  (740) 


>  <Source>  (740) 
AstraZeneca

$$$$
CHEMBL355832
     RDKit          2D

 21 23  0  0  0  0  0  0  0  0999 V2000
    1.7319    2.9076    0.0000 O   0  0  0  0  0  0  0  0  0  0  0  0
    2.4741    2.2374    0.0000 C   0  0  0  0  0  0  0  0  0  0  0  0
    3.4256    2.5451    0.0000 N   0  0  0  0  0  0  0  0  0  0  0  0
    3.6349    3.5229    0.0000 C   0  0  0  0  0  0  0  0  0  0  0  0
    2.8869    4.1944    0.0000 C   0  0  0  0  0  0  0  0  0  0  0  0
    3.0961    5.1723    0.0000 C   0  0  0  0  0  0  0  0  0  0  0  0
    4.0458    5.4855    0.0000 C   0  0  0  0  0  0  0  0  0  0  0  0
    4.7939    4.8140    0.0000 C   0  0  0  0  0  0  0  0  0  0  0  0
    4.5922    3.8293    0.0000 C   0  0  0  0  0  0  0  0  0  0  0  0
    2.2648    1.2596    0.0000 N   0  0  0  0  0  0  0  0  0  0  0  0
    1.3133    0.9519    0.0000 C   0  0  0  0  0  0  0  0  0  0  0  0
    1.0015   -0.0000    0.0000 N   0  0  0  0  0  0  0  0  0  0  0  0
    0.0000    0.0000    0.0000 C   0  0  0  0  0  0  0  0  0  0  0  0
   -0.3065    0.9519    0.0000 C   0  0  0  0  0  0  0  0  0  0  0  0
    0.5008    1.5428    0.0000 S   0  0  0  0  0  0  0  0  0  0  0  0
   -0.5889   -0.8082    0.0000 C   0  0  0  0  0  0  0  0  0  0  0  0
   -0.1785   -1.7259    0.0000 C   0  0  0  0  0  0  0  0  0  0  0  0
   -0.7674   -2.5342    0.0000 C   0  0  0  0  0  0  0  0  0  0  0  0
   -1.7624   -2.4341    0.0000 C   0  0  0  0  0  0  0  0  0  0  0  0
   -2.1727   -1.5165    0.0000 C   0  0  0  0  0  0  0  0  0  0  0  0
   -1.5880   -0.6989    0.0000 C   0  0  0  0  0  0  0  0  0  0  0  0
  1  2  2  0
  2  3  1  0
  3  4  1  0
  4  9  1  0
  4  5  2  0
  5  6  1  0
  6  7  2  0
  7  8  1  0
  8  9  2  0
  2 10  1  0
 10 11  1  0
 11 15  1  0
 11 12  2  0
 12 13  1  0
 13 14  2  0
 14 15  1  0
 13 16  1  0
 16 21  1  0
 16 17  2  0
 17 18  1  0
 18 19  2  0
 19 20  1  0
 20 21  2  0
M  END
>  <SMILES>  (741) 
O=C(Nc1ccccc1)Nc1nc(-c2ccccc2)cs1

>  <CollectionName>  (741) 
chembl

>  <LOG PLASMA PROTEIN BINDING (RAT) (% unbound)>  (741) 
-1.30102999566

>  <Internal ID>  (741) 


>  <Source>  (741) 
AstraZeneca

$$$$
CHEMBL1254771
     RDKit          2D

 35 37  0  0  1  0  0  0  0  0999 V2000
   14.2927    7.9487    0.0000 C   0  0  0  0  0  0  0  0  0  0  0  0
   13.5447    8.6123    0.0000 O   0  0  0  0  0  0  0  0  0  0  0  0
   12.5959    8.2963    0.0000 C   0  0  0  0  0  0  0  0  0  0  0  0
   11.8459    8.9656    0.0000 C   0  0  0  0  0  0  0  0  0  0  0  0
   10.8971    8.6496    0.0000 C   0  0  0  0  0  0  0  0  0  0  0  0
   10.1510    9.3154    0.0000 C   0  0  0  0  0  0  0  0  0  0  0  0
   10.6907    7.6711    0.0000 C   0  0  0  0  0  0  0  0  0  0  0  0
   11.4407    7.0018    0.0000 C   0  0  0  0  0  0  0  0  0  0  0  0
   11.2342    6.0233    0.0000 C   0  0  0  0  0  0  0  0  0  0  0  0
   12.3971    7.3110    0.0000 C   0  0  0  0  0  0  0  0  0  0  0  0
    9.7406    7.3593    0.0000 S   0  0  0  0  0  0  0  0  0  0  0  0
   10.0524    6.4091    0.0000 O   0  0  0  0  0  0  0  0  0  0  0  0
    9.4287    8.3094    0.0000 O   0  0  0  0  0  0  0  0  0  0  0  0
    8.7905    7.0474    0.0000 N   0  0  0  0  0  0  0  0  0  0  0  0
    8.0453    7.7143    0.0000 C   0  0  0  0  0  0  0  0  0  0  0  0
    8.5855    6.0686    0.0000 C   0  0  0  0  0  0  0  0  0  0  0  0
    7.6353    5.7568    0.0000 C   0  0  0  0  0  0  0  0  0  0  0  0
    7.4303    4.7780    0.0000 O   0  0  0  0  0  0  0  0  0  0  0  0
    6.4802    4.4662    0.0000 C   0  0  0  0  0  0  0  0  0  0  0  0
    6.2752    3.4874    0.0000 C   0  0  0  0  0  0  0  0  0  0  0  0
    7.0203    2.8205    0.0000 O   0  0  0  0  0  0  0  0  0  0  0  0
    5.3251    3.1756    0.0000 N   0  0  0  0  0  0  0  0  0  0  0  0
    4.5799    3.8425    0.0000 C   0  0  0  0  0  0  0  0  0  0  0  0
    5.1201    2.1968    0.0000 C   0  0  0  0  0  0  0  0  0  0  0  0
    4.1699    1.8850    0.0000 C   0  0  0  0  0  0  0  0  0  0  0  0
    3.4238    2.5508    0.0000 C   0  0  0  0  0  0  0  0  0  0  0  0
    2.4723    2.2431    0.0000 C   0  0  0  0  0  0  0  0  0  0  0  0
    2.2648    1.2596    0.0000 C   0  0  0  0  0  0  0  0  0  0  0  0
    3.0088    0.5837    0.0000 C   0  0  0  0  0  0  0  0  0  0  0  0
    3.9624    0.9014    0.0000 C   0  0  0  0  0  0  0  0  0  0  0  0
    1.3133    0.9519    0.0000 C   0  0  0  0  0  0  0  0  0  0  0  0
    0.5008    1.5428    0.0000 N   0  0  0  0  0  0  0  0  0  0  0  0
   -0.3065    0.9519    0.0000 C   0  0  0  0  0  0  0  0  0  0  0  0
    0.0000    0.0000    0.0000 C   0  0  0  0  0  0  0  0  0  0  0  0
    1.0015   -0.0000    0.0000 N   0  0  0  0  0  0  0  0  0  0  0  0
  1  2  1  0
  2  3  1  0
  3 10  2  0
  3  4  1  0
  4  5  2  0
  5  6  1  0
  5  7  1  0
  7  8  2  0
  8  9  1  0
  8 10  1  0
  7 11  1  0
 11 12  2  0
 11 13  2  0
 11 14  1  0
 14 15  1  0
 14 16  1  0
 16 17  1  0
 17 18  1  0
 18 19  1  0
 19 20  1  0
 20 21  2  0
 20 22  1  0
 22 23  1  0
 22 24  1  0
 24 25  1  0
 25 30  1  0
 25 26  2  0
 26 27  1  0
 27 28  2  0
 28 29  1  0
 29 30  2  0
 28 31  1  0
 31 35  1  0
 31 32  2  0
 32 33  1  0
 33 34  1  0
 34 35  1  0
M  END
>  <SMILES>  (742) 
COc1cc(C)c(S(=O)(=O)N(C)CCOCC(=O)N(C)Cc2ccc(C3=NCCN3)cc2)c(C)c1

>  <CollectionName>  (742) 
chembl

>  <LOG PLASMA PROTEIN BINDING (RAT) (% unbound)>  (742) 
1.41077723338

>  <Internal ID>  (742) 


>  <Source>  (742) 
AstraZeneca

$$$$
CHEMBL49
     RDKit          2D

 28 31  0  0  0  0  0  0  0  0999 V2000
    0.0094   -1.7362    0.0000 O   0  0  0  0  0  0  0  0  0  0  0  0
    0.5073   -0.8690    0.0000 C   0  0  0  0  0  0  0  0  0  0  0  0
    1.5163   -0.8690    0.0000 C   0  0  0  0  0  0  0  0  0  0  0  0
    2.0197   -0.0049    0.0000 C   0  0  0  0  0  0  0  0  0  0  0  0
    2.6170   -0.8182    0.0000 C   0  0  0  0  0  0  0  0  0  0  0  0
    3.5750   -0.5016    0.0000 C   0  0  0  0  0  0  0  0  0  0  0  0
    3.5700    0.5074    0.0000 C   0  0  0  0  0  0  0  0  0  0  0  0
    2.6088    0.8144    0.0000 C   0  0  0  0  0  0  0  0  0  0  0  0
    1.5163    0.8746    0.0000 C   0  0  0  0  0  0  0  0  0  0  0  0
    0.5073    0.8746    0.0000 C   0  0  0  0  0  0  0  0  0  0  0  0
    0.0082    1.7411    0.0000 O   0  0  0  0  0  0  0  0  0  0  0  0
    0.0000    0.0000    0.0000 N   0  0  0  0  0  0  0  0  0  0  0  0
   -1.0000   -0.0014    0.0000 C   0  0  0  0  0  0  0  0  0  0  0  0
   -1.4988   -0.8681    0.0000 C   0  0  0  0  0  0  0  0  0  0  0  0
   -2.4988   -0.8695    0.0000 C   0  0  0  0  0  0  0  0  0  0  0  0
   -2.9976   -1.7362    0.0000 C   0  0  0  0  0  0  0  0  0  0  0  0
   -3.9976   -1.7376    0.0000 N   0  0  0  0  0  0  0  0  0  0  0  0
   -4.4939   -2.6058    0.0000 C   0  0  0  0  0  0  0  0  0  0  0  0
   -5.4991   -2.6072    0.0000 C   0  0  0  0  0  0  0  0  0  0  0  0
   -6.0080   -1.7404    0.0000 N   0  0  0  0  0  0  0  0  0  0  0  0
   -5.5015   -0.8722    0.0000 C   0  0  0  0  0  0  0  0  0  0  0  0
   -4.4963   -0.8708    0.0000 C   0  0  0  0  0  0  0  0  0  0  0  0
   -7.0080   -1.7418    0.0000 C   0  0  0  0  0  0  0  0  0  0  0  0
   -7.5092   -0.8706    0.0000 N   0  0  0  0  0  0  0  0  0  0  0  0
   -8.5143   -0.8809    0.0000 C   0  0  0  0  0  0  0  0  0  0  0  0
   -9.0131   -1.7536    0.0000 C   0  0  0  0  0  0  0  0  0  0  0  0
   -8.5068   -2.6160    0.0000 C   0  0  0  0  0  0  0  0  0  0  0  0
   -7.5068   -2.6145    0.0000 N   0  0  0  0  0  0  0  0  0  0  0  0
  1  2  2  0
  2 12  1  0
  2  3  1  0
  3  4  1  0
  4  8  1  0
  4  5  1  0
  5  6  1  0
  6  7  1  0
  7  8  1  0
  4  9  1  0
  9 10  1  0
 10 11  2  0
 10 12  1  0
 12 13  1  0
 13 14  1  0
 14 15  1  0
 15 16  1  0
 16 17  1  0
 17 22  1  0
 17 18  1  0
 18 19  1  0
 19 20  1  0
 20 21  1  0
 21 22  1  0
 20 23  1  0
 23 28  1  0
 23 24  2  0
 24 25  1  0
 25 26  2  0
 26 27  1  0
 27 28  2  0
M  END
>  <SMILES>  (743) 
O=C1CC2(CCCC2)CC(=O)N1CCCCN1CCN(c2ncccn2)CC1

>  <CollectionName>  (743) 
chembl

>  <LOG PLASMA PROTEIN BINDING (RAT) (% unbound)>  (743) 
1.39585037602

>  <Internal ID>  (743) 


>  <Source>  (743) 
AstraZeneca

$$$$
CHEMBL453
     RDKit          2D

 18 19  0  0  0  0  0  0  0  0999 V2000
    1.5883   -0.8097    0.0000 C   0  0  0  0  0  0  0  0  0  0  0  0
    1.0015    0.0000    0.0000 C   0  0  0  0  0  0  0  0  0  0  0  0
    1.3133    0.9519    0.0000 N   0  0  0  0  0  0  0  0  0  0  0  0
    0.5008    1.5428    0.0000 O   0  0  0  0  0  0  0  0  0  0  0  0
   -0.3065    0.9519    0.0000 C   0  0  0  0  0  0  0  0  0  0  0  0
   -1.2577    1.2605    0.0000 N   0  0  0  0  0  0  0  0  0  0  0  0
   -2.0005    0.5910    0.0000 S   0  0  0  0  0  0  0  0  0  0  0  0
   -2.6700    1.3339    0.0000 O   0  0  0  0  0  0  0  0  0  0  0  0
   -1.3311   -0.1518    0.0000 O   0  0  0  0  0  0  0  0  0  0  0  0
   -2.7434   -0.0784    0.0000 C   0  0  0  0  0  0  0  0  0  0  0  0
   -2.5311   -1.0609    0.0000 C   0  0  0  0  0  0  0  0  0  0  0  0
   -3.2739   -1.7304    0.0000 C   0  0  0  0  0  0  0  0  0  0  0  0
   -4.2269   -1.4274    0.0000 C   0  0  0  0  0  0  0  0  0  0  0  0
   -4.9668   -2.1001    0.0000 N   0  0  0  0  0  0  0  0  0  0  0  0
   -4.4393   -0.4449    0.0000 C   0  0  0  0  0  0  0  0  0  0  0  0
   -3.6986    0.2346    0.0000 C   0  0  0  0  0  0  0  0  0  0  0  0
    0.0000    0.0000    0.0000 C   0  0  0  0  0  0  0  0  0  0  0  0
   -0.5889   -0.8082    0.0000 C   0  0  0  0  0  0  0  0  0  0  0  0
  1  2  1  0
  2 17  1  0
  2  3  2  0
  3  4  1  0
  4  5  1  0
  5  6  1  0
  6  7  1  0
  7  8  2  0
  7  9  2  0
  7 10  1  0
 10 16  1  0
 10 11  2  0
 11 12  1  0
 12 13  2  0
 13 14  1  0
 13 15  1  0
 15 16  2  0
  5 17  2  0
 17 18  1  0
M  END
>  <SMILES>  (744) 
Cc1noc(NS(=O)(=O)c2ccc(N)cc2)c1C

>  <CollectionName>  (744) 
chembl

>  <LOG PLASMA PROTEIN BINDING (RAT) (% unbound)>  (744) 
0.184691430818

>  <Internal ID>  (744) 


>  <Source>  (744) 
AstraZeneca

$$$$
CHEMBL907
     RDKit          2D

 31 34  0  0  0  0  0  0  0  0999 V2000
    3.8464   -2.0106    0.0000 C   0  0  0  0  0  0  0  0  0  0  0  0
    3.1042   -1.3404    0.0000 C   0  0  0  0  0  0  0  0  0  0  0  0
    3.3135   -0.3625    0.0000 C   0  0  0  0  0  0  0  0  0  0  0  0
    2.5713    0.3077    0.0000 C   0  0  0  0  0  0  0  0  0  0  0  0
    1.6198   -0.0000    0.0000 C   0  0  0  0  0  0  0  0  0  0  0  0
    1.3080   -0.9519    0.0000 N   0  0  0  0  0  0  0  0  0  0  0  0
    0.3065   -0.9519    0.0000 C   0  0  0  0  0  0  0  0  0  0  0  0
   -0.2824   -1.7601    0.0000 Cl  0  0  0  0  0  0  0  0  0  0  0  0
    0.0000    0.0000    0.0000 C   0  0  0  0  0  0  0  0  0  0  0  0
   -0.9512    0.3086    0.0000 C   0  0  0  0  0  0  0  0  0  0  0  0
   -1.1595    1.2867    0.0000 O   0  0  0  0  0  0  0  0  0  0  0  0
   -1.6940   -0.3609    0.0000 O   0  0  0  0  0  0  0  0  0  0  0  0
    0.8073    0.5909    0.0000 N   0  0  0  0  0  0  0  0  0  0  0  0
    0.8058    1.5909    0.0000 C   0  0  0  0  0  0  0  0  0  0  0  0
    1.6710    2.0922    0.0000 C   0  0  0  0  0  0  0  0  0  0  0  0
    2.5386    1.5948    0.0000 C   0  0  0  0  0  0  0  0  0  0  0  0
    3.4060    2.0924    0.0000 C   0  0  0  0  0  0  0  0  0  0  0  0
    3.4060    3.0976    0.0000 C   0  0  0  0  0  0  0  0  0  0  0  0
    2.5384    3.6052    0.0000 C   0  0  0  0  0  0  0  0  0  0  0  0
    1.6710    3.0974    0.0000 C   0  0  0  0  0  0  0  0  0  0  0  0
    4.2734    3.5951    0.0000 C   0  0  0  0  0  0  0  0  0  0  0  0
    4.2777    4.5951    0.0000 C   0  0  0  0  0  0  0  0  0  0  0  0
    5.1431    5.0964    0.0000 C   0  0  0  0  0  0  0  0  0  0  0  0
    6.0129    4.5925    0.0000 C   0  0  0  0  0  0  0  0  0  0  0  0
    6.0174    3.5874    0.0000 C   0  0  0  0  0  0  0  0  0  0  0  0
    5.1432    3.0912    0.0000 C   0  0  0  0  0  0  0  0  0  0  0  0
    5.1389    2.0912    0.0000 C   0  0  0  0  0  0  0  0  0  0  0  0
    5.9474    1.5021    0.0000 N   0  0  0  0  0  0  0  0  0  0  0  0
    5.6320    0.5483    0.0000 N   0  0  0  0  0  0  0  0  0  0  0  0
    4.6305    0.5555    0.0000 N   0  0  0  0  0  0  0  0  0  0  0  0
    4.3256    1.5095    0.0000 N   0  0  0  0  0  0  0  0  0  0  0  0
  1  2  1  0
  2  3  1  0
  3  4  1  0
  4  5  1  0
  5 13  1  0
  5  6  2  0
  6  7  1  0
  7  8  1  0
  7  9  2  0
  9 10  1  0
 10 11  2  0
 10 12  1  0
  9 13  1  0
 13 14  1  0
 14 15  1  0
 15 20  1  0
 15 16  2  0
 16 17  1  0
 17 18  2  0
 18 19  1  0
 19 20  2  0
 18 21  1  0
 21 26  1  0
 21 22  2  0
 22 23  1  0
 23 24  2  0
 24 25  1  0
 25 26  2  0
 26 27  1  0
 27 31  2  0
 27 28  1  0
 28 29  2  0
 29 30  1  0
 30 31  1  0
M  END
>  <SMILES>  (745) 
CCCCc1nc(Cl)c(C(=O)O)n1Cc1ccc(-c2ccccc2-c2nn[nH]n2)cc1

>  <CollectionName>  (745) 
chembl

>  <LOG PLASMA PROTEIN BINDING (RAT) (% unbound)>  (745) 
-0.657577319178

>  <Internal ID>  (745) 


>  <Source>  (745) 
AstraZeneca

$$$$
CHEMBL914
     RDKit          2D

 37 40  0  0  1  0  0  0  0  0999 V2000
   -0.7278    9.0111    0.0000 C   0  0  0  0  0  0  0  0  0  0  0  0
   -1.7278    9.0155    0.0000 C   0  0  0  0  0  0  0  0  0  0  0  0
   -2.7278    9.0199    0.0000 C   0  0  0  0  0  0  0  0  0  0  0  0
   -1.7234   10.0155    0.0000 C   0  0  0  0  0  0  0  0  0  0  0  0
   -0.8551   10.5117    0.0000 O   0  0  0  0  0  0  0  0  0  0  0  0
   -2.5872   10.5193    0.0000 O   0  0  0  0  0  0  0  0  0  0  0  0
   -1.7322    8.0156    0.0000 C   0  0  0  0  0  0  0  0  0  0  0  0
   -0.8624    7.5117    0.0000 C   0  0  0  0  0  0  0  0  0  0  0  0
   -0.8667    6.5117    0.0000 C   0  0  0  0  0  0  0  0  0  0  0  0
   -1.7321    6.0104    0.0000 C   0  0  0  0  0  0  0  0  0  0  0  0
   -2.6019    6.5143    0.0000 C   0  0  0  0  0  0  0  0  0  0  0  0
   -2.6063    7.5194    0.0000 C   0  0  0  0  0  0  0  0  0  0  0  0
   -1.7321    5.0104    0.0000 C   0  0  0  0  0  0  0  0  0  0  0  0
   -2.5981    4.5104    0.0000 O   0  0  0  0  0  0  0  0  0  0  0  0
   -0.8660    4.5104    0.0000 C   0  0  0  0  0  0  0  0  0  0  0  0
   -0.8660    3.5104    0.0000 C   0  0  0  0  0  0  0  0  0  0  0  0
   -0.0000    3.0104    0.0000 C   0  0  0  0  0  0  0  0  0  0  0  0
   -0.0000    2.0104    0.0000 N   0  0  0  0  0  0  0  0  0  0  0  0
   -0.8675    1.5027    0.0000 C   0  0  0  0  0  0  0  0  0  0  0  0
   -0.8675    0.4975    0.0000 C   0  0  0  0  0  0  0  0  0  0  0  0
    0.0000    0.0000    0.0000 C   0  0  0  0  0  0  0  0  0  0  0  0
    0.8675    0.4975    0.0000 C   0  0  0  0  0  0  0  0  0  0  0  0
    0.8675    1.5027    0.0000 C   0  0  0  0  0  0  0  0  0  0  0  0
    0.0000   -1.0000    0.0000 C   0  0  0  0  0  0  0  0  0  0  0  0
   -1.0000   -1.0000    0.0000 O   0  0  0  0  0  0  0  0  0  0  0  0
    1.7500   -1.0000    0.0000 C   0  0  0  0  0  0  0  0  0  0  0  0
    2.2500   -0.1280    0.0000 C   0  0  0  0  0  0  0  0  0  0  0  0
    3.2501   -0.1279    0.0000 C   0  0  0  0  0  0  0  0  0  0  0  0
    3.7551   -0.9911    0.0000 C   0  0  0  0  0  0  0  0  0  0  0  0
    3.2551   -1.8631    0.0000 C   0  0  0  0  0  0  0  0  0  0  0  0
    2.2500   -1.8720    0.0000 C   0  0  0  0  0  0  0  0  0  0  0  0
    0.0000   -2.0000    0.0000 C   0  0  0  0  0  0  0  0  0  0  0  0
    0.8720   -2.5000    0.0000 C   0  0  0  0  0  0  0  0  0  0  0  0
    0.8721   -3.5001    0.0000 C   0  0  0  0  0  0  0  0  0  0  0  0
    0.0089   -4.0051    0.0000 C   0  0  0  0  0  0  0  0  0  0  0  0
   -0.8631   -3.5051    0.0000 C   0  0  0  0  0  0  0  0  0  0  0  0
   -0.8720   -2.5000    0.0000 C   0  0  0  0  0  0  0  0  0  0  0  0
  1  2  1  0
  2  3  1  0
  2  4  1  0
  4  5  2  0
  4  6  1  0
  2  7  1  0
  7 12  2  0
  7  8  1  0
  8  9  2  0
  9 10  1  0
 10 11  2  0
 11 12  1  0
 10 13  1  0
 13 14  1  0
 13 15  1  0
 15 16  1  0
 16 17  1  0
 17 18  1  0
 18 23  1  0
 18 19  1  0
 19 20  1  0
 20 21  1  0
 21 22  1  0
 22 23  1  0
 21 24  1  0
 24 25  1  0
 24 26  1  0
 26 31  1  0
 26 27  2  0
 27 28  1  0
 28 29  2  0
 29 30  1  0
 30 31  2  0
 24 32  1  0
 32 37  1  0
 32 33  2  0
 33 34  1  0
 34 35  2  0
 35 36  1  0
 36 37  2  0
M  END
>  <SMILES>  (746) 
CC(C)(C(=O)O)c1ccc(C(O)CCCN2CCC(C(O)(c3ccccc3)c3ccccc3)CC2)cc1

>  <CollectionName>  (746) 
chembl

>  <LOG PLASMA PROTEIN BINDING (RAT) (% unbound)>  (746) 
1.36530074864

>  <Internal ID>  (746) 


>  <Source>  (746) 
AstraZeneca

$$$$
CHEMBL331372
     RDKit          2D

 36 39  0  0  1  0  0  0  0  0999 V2000
   -0.4331   -6.7198    0.0000 C   0  0  0  0  0  0  0  0  0  0  0  0
    0.5447   -6.5101    0.0000 C   0  0  0  0  0  0  0  0  0  0  0  0
    0.8519   -5.5585    0.0000 N   0  0  0  0  0  0  0  0  0  0  0  0
    1.8297   -5.3488    0.0000 C   0  0  0  0  0  0  0  0  0  0  0  0
    2.5002   -6.0907    0.0000 O   0  0  0  0  0  0  0  0  0  0  0  0
    2.1370   -4.3972    0.0000 C   0  0  0  0  0  0  0  0  0  0  0  0
    1.5450   -3.5907    0.0000 O   0  0  0  0  0  0  0  0  0  0  0  0
    2.1348   -2.7774    0.0000 C   0  0  0  0  0  0  0  0  0  0  0  0
    3.0871   -3.0879    0.0000 C   0  0  0  0  0  0  0  0  0  0  0  0
    3.8960   -2.4999    0.0000 O   0  0  0  0  0  0  0  0  0  0  0  0
    3.0885   -4.0894    0.0000 C   0  0  0  0  0  0  0  0  0  0  0  0
    3.8975   -4.6771    0.0000 O   0  0  0  0  0  0  0  0  0  0  0  0
    1.8258   -1.8263    0.0000 N   0  0  0  0  0  0  0  0  0  0  0  0
    2.4178   -1.0115    0.0000 C   0  0  0  0  0  0  0  0  0  0  0  0
    1.8258   -0.1969    0.0000 N   0  0  0  0  0  0  0  0  0  0  0  0
    0.8680   -0.5079    0.0000 C   0  0  0  0  0  0  0  0  0  0  0  0
    0.0000    0.0000    0.0000 C   0  0  0  0  0  0  0  0  0  0  0  0
    0.0000    1.0000    0.0000 N   0  0  0  0  0  0  0  0  0  0  0  0
   -0.8680   -0.5079    0.0000 N   0  0  0  0  0  0  0  0  0  0  0  0
   -0.8680   -1.5137    0.0000 C   0  0  0  0  0  0  0  0  0  0  0  0
   -1.7333   -2.0149    0.0000 N   0  0  0  0  0  0  0  0  0  0  0  0
   -1.7319   -3.0149    0.0000 C   0  0  0  0  0  0  0  0  0  0  0  0
   -2.5972   -3.5161    0.0000 C   0  0  0  0  0  0  0  0  0  0  0  0
   -2.5958   -4.5161    0.0000 C   0  0  0  0  0  0  0  0  0  0  0  0
   -1.7231   -5.0149    0.0000 C   0  0  0  0  0  0  0  0  0  0  0  0
   -1.7217   -6.0150    0.0000 C   0  0  0  0  0  0  0  0  0  0  0  0
   -2.5841   -6.5212    0.0000 C   0  0  0  0  0  0  0  0  0  0  0  0
   -2.5783   -7.5212    0.0000 C   0  0  0  0  0  0  0  0  0  0  0  0
   -3.4414   -8.0262    0.0000 C   0  0  0  0  0  0  0  0  0  0  0  0
   -3.4356   -9.0262    0.0000 C   0  0  0  0  0  0  0  0  0  0  0  0
   -2.5667   -9.5212    0.0000 O   0  0  0  0  0  0  0  0  0  0  0  0
   -4.2987   -9.5312    0.0000 O   0  0  0  0  0  0  0  0  0  0  0  0
   -3.4568   -6.0224    0.0000 C   0  0  0  0  0  0  0  0  0  0  0  0
   -3.4671   -5.0173    0.0000 C   0  0  0  0  0  0  0  0  0  0  0  0
   -0.0000   -2.0116    0.0000 N   0  0  0  0  0  0  0  0  0  0  0  0
    0.8680   -1.5150    0.0000 C   0  0  0  0  0  0  0  0  0  0  0  0
  1  2  1  0
  2  3  1  0
  3  4  1  0
  4  5  2  0
  6  4  1  1
  6 11  1  0
  6  7  1  0
  7  8  1  0
  8  9  1  0
  9 10  1  6
  9 11  1  0
 11 12  1  6
  8 13  1  1
 13 36  1  0
 13 14  1  0
 14 15  2  0
 15 16  1  0
 16 36  2  0
 16 17  1  0
 17 18  1  0
 17 19  2  0
 19 20  1  0
 20 21  1  0
 21 22  1  0
 22 23  1  0
 23 24  1  0
 24 34  1  0
 24 25  2  0
 25 26  1  0
 26 27  2  0
 27 28  1  0
 28 29  1  0
 29 30  1  0
 30 31  2  0
 30 32  1  0
 27 33  1  0
 33 34  2  0
 20 35  2  0
 35 36  1  0
M  END
>  <SMILES>  (747) 
CCNC(=O)[C@H]1O[C@@H](n2cnc3c(N)nc(NCCc4ccc(CCC(=O)O)cc4)nc32)[C@H](O)[C@@H]1O

>  <CollectionName>  (747) 
chembl

>  <LOG PLASMA PROTEIN BINDING (RAT) (% unbound)>  (747) 
1.00389116624

>  <Internal ID>  (747) 


>  <Source>  (747) 
AstraZeneca

$$$$
CHEMBL422
     RDKit          2D

 28 31  0  0  0  0  0  0  0  0999 V2000
   -1.7500    5.0003    0.0000 C   0  0  0  0  0  0  0  0  0  0  0  0
   -0.8826    4.5026    0.0000 N   0  0  0  0  0  0  0  0  0  0  0  0
   -0.0193    5.0074    0.0000 C   0  0  0  0  0  0  0  0  0  0  0  0
    0.8525    4.5072    0.0000 C   0  0  0  0  0  0  0  0  0  0  0  0
    0.8611    3.5021    0.0000 N   0  0  0  0  0  0  0  0  0  0  0  0
    1.7285    3.0044    0.0000 C   0  0  0  0  0  0  0  0  0  0  0  0
    1.7312    2.0044    0.0000 C   0  0  0  0  0  0  0  0  0  0  0  0
    2.5985    1.5067    0.0000 C   0  0  0  0  0  0  0  0  0  0  0  0
    2.6012    0.5067    0.0000 N   0  0  0  0  0  0  0  0  0  0  0  0
    1.7358   -0.0000    0.0000 C   0  0  0  0  0  0  0  0  0  0  0  0
    0.8679    0.5079    0.0000 C   0  0  0  0  0  0  0  0  0  0  0  0
    0.0000    0.0000    0.0000 C   0  0  0  0  0  0  0  0  0  0  0  0
    0.0000   -1.0057    0.0000 C   0  0  0  0  0  0  0  0  0  0  0  0
    0.8679   -1.5033    0.0000 C   0  0  0  0  0  0  0  0  0  0  0  0
    1.7371   -1.0057    0.0000 C   0  0  0  0  0  0  0  0  0  0  0  0
    2.6038   -1.5046    0.0000 S   0  0  0  0  0  0  0  0  0  0  0  0
    3.4738   -1.0059    0.0000 C   0  0  0  0  0  0  0  0  0  0  0  0
    4.3422   -1.5068    0.0000 C   0  0  0  0  0  0  0  0  0  0  0  0
    5.2158   -1.0053    0.0000 C   0  0  0  0  0  0  0  0  0  0  0  0
    5.2154    0.0028    0.0000 C   0  0  0  0  0  0  0  0  0  0  0  0
    4.3415    0.5094    0.0000 C   0  0  0  0  0  0  0  0  0  0  0  0
    3.4735    0.0022    0.0000 C   0  0  0  0  0  0  0  0  0  0  0  0
    6.0818    0.5022    0.0000 C   0  0  0  0  0  0  0  0  0  0  0  0
    5.5824    1.3686    0.0000 F   0  0  0  0  0  0  0  0  0  0  0  0
    6.5812   -0.3642    0.0000 F   0  0  0  0  0  0  0  0  0  0  0  0
    6.9481    1.0016    0.0000 F   0  0  0  0  0  0  0  0  0  0  0  0
   -0.0110    3.0023    0.0000 C   0  0  0  0  0  0  0  0  0  0  0  0
   -0.8828    3.5026    0.0000 C   0  0  0  0  0  0  0  0  0  0  0  0
  1  2  1  0
  2 28  1  0
  2  3  1  0
  3  4  1  0
  4  5  1  0
  5  6  1  0
  6  7  1  0
  7  8  1  0
  8  9  1  0
  9 22  1  0
  9 10  1  0
 10 15  1  0
 10 11  2  0
 11 12  1  0
 12 13  2  0
 13 14  1  0
 14 15  2  0
 15 16  1  0
 16 17  1  0
 17 22  2  0
 17 18  1  0
 18 19  2  0
 19 20  1  0
 20 21  2  0
 21 22  1  0
 20 23  1  0
 23 24  1  0
 23 25  1  0
 23 26  1  0
  5 27  1  0
 27 28  1  0
M  END
>  <SMILES>  (748) 
CN1CCN(CCCN2c3ccccc3Sc3ccc(C(F)(F)F)cc32)CC1

>  <CollectionName>  (748) 
chembl

>  <LOG PLASMA PROTEIN BINDING (RAT) (% unbound)>  (748) 
-0.154901959986

>  <Internal ID>  (748) 


>  <Source>  (748) 
AstraZeneca

$$$$
CHEMBL2059859
     RDKit          2D

 33 37  0  0  0  0  0  0  0  0999 V2000
    7.2909   -0.5167    0.0000 C   0  0  0  0  0  0  0  0  0  0  0  0
    6.2909   -0.5124    0.0000 C   0  0  0  0  0  0  0  0  0  0  0  0
    5.7859   -1.3755    0.0000 C   0  0  0  0  0  0  0  0  0  0  0  0
    4.7859   -1.3755    0.0000 C   0  0  0  0  0  0  0  0  0  0  0  0
    4.2858   -0.5035    0.0000 C   0  0  0  0  0  0  0  0  0  0  0  0
    4.7858    0.3684    0.0000 C   0  0  0  0  0  0  0  0  0  0  0  0
    5.7909    0.3596    0.0000 C   0  0  0  0  0  0  0  0  0  0  0  0
    6.2959    1.2227    0.0000 N   0  0  0  0  0  0  0  0  0  0  0  0
    5.8010    2.0916    0.0000 C   0  0  0  0  0  0  0  0  0  0  0  0
    4.8010    2.0975    0.0000 O   0  0  0  0  0  0  0  0  0  0  0  0
    6.3060    2.9547    0.0000 C   0  0  0  0  0  0  0  0  0  0  0  0
    7.3060    2.9503    0.0000 C   0  0  0  0  0  0  0  0  0  0  0  0
    7.8149    3.8112    0.0000 C   0  0  0  0  0  0  0  0  0  0  0  0
    7.3186    4.6854    0.0000 C   0  0  0  0  0  0  0  0  0  0  0  0
    7.8275    5.5463    0.0000 O   0  0  0  0  0  0  0  0  0  0  0  0
    7.3364    6.4174    0.0000 C   0  0  0  0  0  0  0  0  0  0  0  0
    7.8452    7.2782    0.0000 C   0  0  0  0  0  0  0  0  0  0  0  0
    7.3490    8.1524    0.0000 C   0  0  0  0  0  0  0  0  0  0  0  0
    7.8578    9.0133    0.0000 C   0  0  0  0  0  0  0  0  0  0  0  0
    8.8578    9.0089    0.0000 C   0  0  0  0  0  0  0  0  0  0  0  0
    9.3541    8.1347    0.0000 C   0  0  0  0  0  0  0  0  0  0  0  0
    8.8503    7.2650    0.0000 N   0  0  0  0  0  0  0  0  0  0  0  0
    6.3136    4.6987    0.0000 C   0  0  0  0  0  0  0  0  0  0  0  0
    5.8098    3.8289    0.0000 C   0  0  0  0  0  0  0  0  0  0  0  0
    3.2858   -0.5036    0.0000 C   0  0  0  0  0  0  0  0  0  0  0  0
    2.6938   -1.3184    0.0000 N   0  0  0  0  0  0  0  0  0  0  0  0
    1.7360   -1.0071    0.0000 C   0  0  0  0  0  0  0  0  0  0  0  0
    0.8680   -1.5037    0.0000 C   0  0  0  0  0  0  0  0  0  0  0  0
    0.0000   -1.0058    0.0000 C   0  0  0  0  0  0  0  0  0  0  0  0
    0.0000    0.0000    0.0000 C   0  0  0  0  0  0  0  0  0  0  0  0
    0.8680    0.5079    0.0000 C   0  0  0  0  0  0  0  0  0  0  0  0
    1.7360   -0.0000    0.0000 C   0  0  0  0  0  0  0  0  0  0  0  0
    2.6938    0.3110    0.0000 N   0  0  0  0  0  0  0  0  0  0  0  0
  1  2  1  0
  2  7  2  0
  2  3  1  0
  3  4  2  0
  4  5  1  0
  5  6  2  0
  6  7  1  0
  7  8  1  0
  8  9  1  0
  9 10  2  0
  9 11  1  0
 11 24  1  0
 11 12  2  0
 12 13  1  0
 13 14  2  0
 14 15  1  0
 15 16  1  0
 16 17  1  0
 17 22  1  0
 17 18  2  0
 18 19  1  0
 19 20  2  0
 20 21  1  0
 21 22  2  0
 14 23  1  0
 23 24  2  0
  5 25  1  0
 25 33  1  0
 25 26  2  0
 26 27  1  0
 27 32  2  0
 27 28  1  0
 28 29  2  0
 29 30  1  0
 30 31  2  0
 31 32  1  0
 32 33  1  0
M  END
>  <SMILES>  (749) 
Cc1ccc(-c2nc3ccccc3[nH]2)cc1NC(=O)c1ccc(OCc2ccccn2)cc1

>  <CollectionName>  (749) 
chembl

>  <LOG PLASMA PROTEIN BINDING (RAT) (% unbound)>  (749) 
0.725911632295

>  <Internal ID>  (749) 


>  <Source>  (749) 
AstraZeneca

$$$$
CHEMBL2071601
     RDKit          2D

 29 30  0  0  1  0  0  0  0  0999 V2000
    0.0044   -3.0000    0.0000 C   0  0  0  0  0  0  0  0  0  0  0  0
    0.0029   -2.0000    0.0000 C   0  0  0  0  0  0  0  0  0  0  0  0
    0.8682   -1.4987    0.0000 C   0  0  0  0  0  0  0  0  0  0  0  0
   -0.8638   -1.5013    0.0000 C   0  0  0  0  0  0  0  0  0  0  0  0
   -1.7291   -2.0025    0.0000 N   0  0  0  0  0  0  0  0  0  0  0  0
   -2.5959   -1.5038    0.0000 C   0  0  0  0  0  0  0  0  0  0  0  0
   -2.5973   -0.5038    0.0000 O   0  0  0  0  0  0  0  0  0  0  0  0
   -3.4612   -2.0050    0.0000 C   0  0  0  0  0  0  0  0  0  0  0  0
   -4.3309   -1.5011    0.0000 C   0  0  0  0  0  0  0  0  0  0  0  0
   -5.1962   -2.0127    0.0000 C   0  0  0  0  0  0  0  0  0  0  0  0
   -6.0659   -1.5190    0.0000 Cl  0  0  0  0  0  0  0  0  0  0  0  0
   -5.1918   -3.0179    0.0000 C   0  0  0  0  0  0  0  0  0  0  0  0
   -4.3221   -3.5115    0.0000 C   0  0  0  0  0  0  0  0  0  0  0  0
   -3.4568   -3.0102    0.0000 C   0  0  0  0  0  0  0  0  0  0  0  0
   -1.9387   -3.8807    0.0000 C   0  0  0  0  0  0  0  0  0  0  0  0
   -1.4412   -3.0132    0.0000 F   0  0  0  0  0  0  0  0  0  0  0  0
   -2.4361   -4.7482    0.0000 F   0  0  0  0  0  0  0  0  0  0  0  0
   -1.0712   -4.3782    0.0000 F   0  0  0  0  0  0  0  0  0  0  0  0
   -0.8653   -0.5013    0.0000 C   0  0  0  0  0  0  0  0  0  0  0  0
   -1.7320   -0.0025    0.0000 O   0  0  0  0  0  0  0  0  0  0  0  0
    0.0000    0.0000    0.0000 C   0  0  0  0  0  0  0  0  0  0  0  0
    0.8675   -0.4975    0.0000 C   0  0  0  0  0  0  0  0  0  0  0  0
    1.7350    0.0000    0.0000 C   0  0  0  0  0  0  0  0  0  0  0  0
    1.7350    1.0052    0.0000 C   0  0  0  0  0  0  0  0  0  0  0  0
    0.8675    1.5129    0.0000 C   0  0  0  0  0  0  0  0  0  0  0  0
   -0.0000    1.0052    0.0000 C   0  0  0  0  0  0  0  0  0  0  0  0
    2.6025    1.5026    0.0000 N   0  0  0  0  0  0  0  0  0  0  0  0
    3.4670    1.0001    0.0000 O   0  0  0  0  0  0  0  0  0  0  0  0
    2.6054    2.5026    0.0000 O   0  0  0  0  0  0  0  0  0  0  0  0
  1  2  1  0
  2  3  1  0
  2  4  1  0
  4  5  1  0
  5  6  1  0
  6  7  2  0
  6  8  1  0
  8 14  1  0
  8  9  2  0
  9 10  1  0
 10 11  1  0
 10 12  2  0
 12 13  1  0
 13 14  2  0
 14 15  1  0
 15 16  1  0
 15 17  1  0
 15 18  1  0
  4 19  1  0
 19 20  2  0
 19 21  1  0
 21 26  1  0
 21 22  2  0
 22 23  1  0
 23 24  2  0
 24 25  1  0
 25 26  2  0
 24 27  1  0
 27 28  2  0
 27 29  1  0
M  CHG  2  27   1  29  -1
M  END
>  <SMILES>  (750) 
CC(C)C(NC(=O)c1cc(Cl)ccc1C(F)(F)F)C(=O)c1ccc([N+](=O)[O-])cc1

>  <CollectionName>  (750) 
chembl

>  <LOG PLASMA PROTEIN BINDING (RAT) (% unbound)>  (750) 
0.380211241712

>  <Internal ID>  (750) 


>  <Source>  (750) 
AstraZeneca

$$$$
CHEMBL2031221
     RDKit          2D

 40 45  0  0  0  0  0  0  0  0999 V2000
   -3.4702   -2.0103    0.0000 C   0  0  0  0  0  0  0  0  0  0  0  0
   -2.6049   -1.5090    0.0000 N   0  0  0  0  0  0  0  0  0  0  0  0
   -2.6092   -0.5090    0.0000 C   0  0  0  0  0  0  0  0  0  0  0  0
   -1.7395   -0.0051    0.0000 C   0  0  0  0  0  0  0  0  0  0  0  0
   -0.8653   -0.5013    0.0000 N   0  0  0  0  0  0  0  0  0  0  0  0
   -0.8698   -1.5064    0.0000 C   0  0  0  0  0  0  0  0  0  0  0  0
   -1.7395   -2.0103    0.0000 C   0  0  0  0  0  0  0  0  0  0  0  0
    0.0000    0.0000    0.0000 C   0  0  0  0  0  0  0  0  0  0  0  0
    0.0000    1.0056    0.0000 C   0  0  0  0  0  0  0  0  0  0  0  0
    0.8679    1.5135    0.0000 C   0  0  0  0  0  0  0  0  0  0  0  0
    1.7358    1.0056    0.0000 C   0  0  0  0  0  0  0  0  0  0  0  0
    2.6012    1.5123    0.0000 N   0  0  0  0  0  0  0  0  0  0  0  0
    3.4735    1.0079    0.0000 C   0  0  0  0  0  0  0  0  0  0  0  0
    3.4748    0.0023    0.0000 N   0  0  0  0  0  0  0  0  0  0  0  0
    2.6038   -0.4989    0.0000 C   0  0  0  0  0  0  0  0  0  0  0  0
    2.6037   -1.4989    0.0000 O   0  0  0  0  0  0  0  0  0  0  0  0
    1.7371   -0.0000    0.0000 C   0  0  0  0  0  0  0  0  0  0  0  0
    0.8679   -0.4977    0.0000 C   0  0  0  0  0  0  0  0  0  0  0  0
    4.3408   -0.4978    0.0000 C   0  0  0  0  0  0  0  0  0  0  0  0
    4.3377   -1.5029    0.0000 C   0  0  0  0  0  0  0  0  0  0  0  0
    5.2126   -1.9978    0.0000 C   0  0  0  0  0  0  0  0  0  0  0  0
    5.2184   -2.9978    0.0000 N   0  0  0  0  0  0  0  0  0  0  0  0
    6.0874   -3.4927    0.0000 C   0  0  0  0  0  0  0  0  0  0  0  0
    6.9505   -2.9877    0.0000 O   0  0  0  0  0  0  0  0  0  0  0  0
    6.0932   -4.4927    0.0000 C   0  0  0  0  0  0  0  0  0  0  0  0
    5.2241   -4.9978    0.0000 C   0  0  0  0  0  0  0  0  0  0  0  0
    5.2299   -5.9978    0.0000 C   0  0  0  0  0  0  0  0  0  0  0  0
    6.0959   -6.4979    0.0000 C   0  0  0  0  0  0  0  0  0  0  0  0
    6.9650   -5.9928    0.0000 C   0  0  0  0  0  0  0  0  0  0  0  0
    6.9680   -4.9876    0.0000 C   0  0  0  0  0  0  0  0  0  0  0  0
    7.8310   -6.4928    0.0000 N   0  0  0  0  0  0  0  0  0  0  0  0
    8.6956   -5.9904    0.0000 C   0  0  0  0  0  0  0  0  0  0  0  0
    9.5661   -6.4931    0.0000 C   0  0  0  0  0  0  0  0  0  0  0  0
    9.5720   -7.4982    0.0000 O   0  0  0  0  0  0  0  0  0  0  0  0
    8.6985   -7.9955    0.0000 C   0  0  0  0  0  0  0  0  0  0  0  0
    7.8280   -7.4929    0.0000 C   0  0  0  0  0  0  0  0  0  0  0  0
    6.0817   -1.4927    0.0000 C   0  0  0  0  0  0  0  0  0  0  0  0
    6.0759   -0.4927    0.0000 C   0  0  0  0  0  0  0  0  0  0  0  0
    5.2099    0.0073    0.0000 C   0  0  0  0  0  0  0  0  0  0  0  0
    5.2084    1.0073    0.0000 C   0  0  0  0  0  0  0  0  0  0  0  0
  1  2  1  0
  2  7  1  0
  2  3  1  0
  3  4  1  0
  4  5  1  0
  5  6  1  0
  6  7  1  0
  5  8  1  0
  8 18  1  0
  8  9  2  0
  9 10  1  0
 10 11  2  0
 11 17  1  0
 11 12  1  0
 12 13  2  0
 13 14  1  0
 14 15  1  0
 15 16  2  0
 15 17  1  0
 17 18  2  0
 14 19  1  0
 19 39  1  0
 19 20  2  0
 20 21  1  0
 21 22  1  0
 22 23  1  0
 23 24  2  0
 23 25  1  0
 25 30  1  0
 25 26  2  0
 26 27  1  0
 27 28  2  0
 28 29  1  0
 29 30  2  0
 29 31  1  0
 31 36  1  0
 31 32  1  0
 32 33  1  0
 33 34  1  0
 34 35  1  0
 35 36  1  0
 21 37  2  0
 37 38  1  0
 38 39  2  0
 39 40  1  0
M  END
>  <SMILES>  (751) 
Cc1ccc(NC(=O)c2cccc(N3CCOCC3)c2)cc1-n1cnc2ccc(N3CCN(C)CC3)cc2c1=O

>  <CollectionName>  (751) 
chembl

>  <LOG PLASMA PROTEIN BINDING (RAT) (% unbound)>  (751) 
1.01283722471

>  <Internal ID>  (751) 


>  <Source>  (751) 
AstraZeneca

$$$$
CHEMBL2011109
     RDKit          2D

 33 36  0  0  1  0  0  0  0  0999 V2000
    2.0919    0.0515    0.0000 C   0  0  0  0  0  0  0  0  0  0  0  0
    1.5920   -0.8145    0.0000 C   0  0  0  0  0  0  0  0  0  0  0  0
    2.0921   -1.6805    0.0000 C   0  0  0  0  0  0  0  0  0  0  0  0
    0.5920   -0.8146    0.0000 N   0  0  0  0  0  0  0  0  0  0  0  0
    0.0000    0.0000    0.0000 C   0  0  0  0  0  0  0  0  0  0  0  0
   -0.9578   -0.3110    0.0000 C   0  0  0  0  0  0  0  0  0  0  0  0
   -1.8258    0.1969    0.0000 C   0  0  0  0  0  0  0  0  0  0  0  0
   -1.8258    1.1969    0.0000 N   0  0  0  0  0  0  0  0  0  0  0  0
   -2.6918    1.6969    0.0000 C   0  0  0  0  0  0  0  0  0  0  0  0
   -2.6918    2.6969    0.0000 C   0  0  0  0  0  0  0  0  0  0  0  0
   -1.8258    3.1969    0.0000 C   0  0  0  0  0  0  0  0  0  0  0  0
   -3.5579    3.1969    0.0000 C   0  0  0  0  0  0  0  0  0  0  0  0
   -3.5593    4.1969    0.0000 C   0  0  0  0  0  0  0  0  0  0  0  0
   -4.4232    4.7007    0.0000 C   0  0  0  0  0  0  0  0  0  0  0  0
   -5.2944    4.1994    0.0000 C   0  0  0  0  0  0  0  0  0  0  0  0
   -6.1582    4.7032    0.0000 Cl  0  0  0  0  0  0  0  0  0  0  0  0
   -5.3018    3.1943    0.0000 C   0  0  0  0  0  0  0  0  0  0  0  0
   -4.4291    2.6956    0.0000 C   0  0  0  0  0  0  0  0  0  0  0  0
   -2.6938   -0.3110    0.0000 N   0  0  0  0  0  0  0  0  0  0  0  0
   -2.6938   -1.3168    0.0000 C   0  0  0  0  0  0  0  0  0  0  0  0
   -1.8258   -1.8147    0.0000 N   0  0  0  0  0  0  0  0  0  0  0  0
   -0.9578   -1.3181    0.0000 C   0  0  0  0  0  0  0  0  0  0  0  0
    0.0000   -1.6294    0.0000 C   0  0  0  0  0  0  0  0  0  0  0  0
    0.3090   -2.5805    0.0000 O   0  0  0  0  0  0  0  0  0  0  0  0
   -3.5591   -1.8180    0.0000 N   0  0  0  0  0  0  0  0  0  0  0  0
   -3.5548   -2.8180    0.0000 C   0  0  0  0  0  0  0  0  0  0  0  0
   -4.4246   -3.3219    0.0000 C   0  0  0  0  0  0  0  0  0  0  0  0
   -5.2988   -2.8257    0.0000 N   0  0  0  0  0  0  0  0  0  0  0  0
   -5.2942   -1.8205    0.0000 C   0  0  0  0  0  0  0  0  0  0  0  0
   -4.4244   -1.3167    0.0000 C   0  0  0  0  0  0  0  0  0  0  0  0
   -6.1641   -3.3269    0.0000 C   0  0  0  0  0  0  0  0  0  0  0  0
   -6.1627   -4.3269    0.0000 O   0  0  0  0  0  0  0  0  0  0  0  0
   -7.0308   -2.8281    0.0000 C   0  0  0  0  0  0  0  0  0  0  0  0
  1  2  1  0
  2  3  1  0
  2  4  1  0
  4 23  1  0
  4  5  1  0
  5  6  1  0
  6 22  2  0
  6  7  1  0
  7  8  1  0
  8  9  1  0
  9 10  1  0
 10 11  1  0
 10 12  1  0
 12 18  1  0
 12 13  2  0
 13 14  1  0
 14 15  2  0
 15 16  1  0
 15 17  1  0
 17 18  2  0
  7 19  2  0
 19 20  1  0
 20 21  2  0
 21 22  1  0
 22 23  1  0
 23 24  2  0
 20 25  1  0
 25 30  1  0
 25 26  1  0
 26 27  1  0
 27 28  1  0
 28 29  1  0
 29 30  1  0
 28 31  1  0
 31 32  2  0
 31 33  1  0
M  END
>  <SMILES>  (752) 
CC(=O)N1CCN(c2nc(NCC(C)c3ccc(Cl)cc3)c3c(n2)C(=O)N(C(C)C)C3)CC1

>  <CollectionName>  (752) 
chembl

>  <LOG PLASMA PROTEIN BINDING (RAT) (% unbound)>  (752) 
1.15320490008

>  <Internal ID>  (752) 


>  <Source>  (752) 
AstraZeneca

$$$$
CHEMBL2011112
     RDKit          2D

 34 37  0  0  0  0  0  0  0  0999 V2000
    2.0919    0.0515    0.0000 C   0  0  0  0  0  0  0  0  0  0  0  0
    1.5920   -0.8145    0.0000 C   0  0  0  0  0  0  0  0  0  0  0  0
    2.0921   -1.6805    0.0000 C   0  0  0  0  0  0  0  0  0  0  0  0
    0.5920   -0.8146    0.0000 N   0  0  0  0  0  0  0  0  0  0  0  0
    0.0000    0.0000    0.0000 C   0  0  0  0  0  0  0  0  0  0  0  0
   -0.9578   -0.3110    0.0000 C   0  0  0  0  0  0  0  0  0  0  0  0
   -1.8258    0.1969    0.0000 C   0  0  0  0  0  0  0  0  0  0  0  0
   -1.8258    1.1969    0.0000 N   0  0  0  0  0  0  0  0  0  0  0  0
   -2.6918    1.6969    0.0000 C   0  0  0  0  0  0  0  0  0  0  0  0
   -3.1918    0.8309    0.0000 C   0  0  0  0  0  0  0  0  0  0  0  0
   -2.1918    2.5629    0.0000 C   0  0  0  0  0  0  0  0  0  0  0  0
   -3.5579    2.1969    0.0000 C   0  0  0  0  0  0  0  0  0  0  0  0
   -3.5579    3.1969    0.0000 C   0  0  0  0  0  0  0  0  0  0  0  0
   -2.6925    3.6982    0.0000 C   0  0  0  0  0  0  0  0  0  0  0  0
   -2.6882    4.6982    0.0000 C   0  0  0  0  0  0  0  0  0  0  0  0
   -3.5580    5.2021    0.0000 C   0  0  0  0  0  0  0  0  0  0  0  0
   -3.5536    6.2020    0.0000 Cl  0  0  0  0  0  0  0  0  0  0  0  0
   -4.4321    4.7059    0.0000 C   0  0  0  0  0  0  0  0  0  0  0  0
   -4.4276    3.7008    0.0000 C   0  0  0  0  0  0  0  0  0  0  0  0
   -2.6938   -0.3110    0.0000 N   0  0  0  0  0  0  0  0  0  0  0  0
   -2.6938   -1.3168    0.0000 C   0  0  0  0  0  0  0  0  0  0  0  0
   -1.8258   -1.8147    0.0000 N   0  0  0  0  0  0  0  0  0  0  0  0
   -0.9578   -1.3181    0.0000 C   0  0  0  0  0  0  0  0  0  0  0  0
    0.0000   -1.6294    0.0000 C   0  0  0  0  0  0  0  0  0  0  0  0
    0.3090   -2.5805    0.0000 O   0  0  0  0  0  0  0  0  0  0  0  0
   -3.5591   -1.8180    0.0000 N   0  0  0  0  0  0  0  0  0  0  0  0
   -3.5548   -2.8180    0.0000 C   0  0  0  0  0  0  0  0  0  0  0  0
   -4.4246   -3.3219    0.0000 C   0  0  0  0  0  0  0  0  0  0  0  0
   -5.2988   -2.8257    0.0000 N   0  0  0  0  0  0  0  0  0  0  0  0
   -5.2942   -1.8205    0.0000 C   0  0  0  0  0  0  0  0  0  0  0  0
   -4.4244   -1.3167    0.0000 C   0  0  0  0  0  0  0  0  0  0  0  0
   -6.1641   -3.3269    0.0000 C   0  0  0  0  0  0  0  0  0  0  0  0
   -6.1627   -4.3269    0.0000 O   0  0  0  0  0  0  0  0  0  0  0  0
   -7.0308   -2.8281    0.0000 C   0  0  0  0  0  0  0  0  0  0  0  0
  1  2  1  0
  2  3  1  0
  2  4  1  0
  4 24  1  0
  4  5  1  0
  5  6  1  0
  6 23  2  0
  6  7  1  0
  7  8  1  0
  8  9  1  0
  9 10  1  0
  9 11  1  0
  9 12  1  0
 12 13  1  0
 13 19  1  0
 13 14  2  0
 14 15  1  0
 15 16  2  0
 16 17  1  0
 16 18  1  0
 18 19  2  0
  7 20  2  0
 20 21  1  0
 21 22  2  0
 22 23  1  0
 23 24  1  0
 24 25  2  0
 21 26  1  0
 26 31  1  0
 26 27  1  0
 27 28  1  0
 28 29  1  0
 29 30  1  0
 30 31  1  0
 29 32  1  0
 32 33  2  0
 32 34  1  0
M  END
>  <SMILES>  (753) 
CC(=O)N1CCN(c2nc(NC(C)(C)Cc3ccc(Cl)cc3)c3c(n2)C(=O)N(C(C)C)C3)CC1

>  <CollectionName>  (753) 
chembl

>  <LOG PLASMA PROTEIN BINDING (RAT) (% unbound)>  (753) 
0.583198773969

>  <Internal ID>  (753) 


>  <Source>  (753) 
AstraZeneca

$$$$
CHEMBL2011120
     RDKit          2D

 34 37  0  0  1  0  0  0  0  0999 V2000
   -3.5470    7.2058    0.0000 C   0  0  0  0  0  0  0  0  0  0  0  0
   -3.5514    6.2059    0.0000 C   0  0  0  0  0  0  0  0  0  0  0  0
   -2.6875    5.7020    0.0000 O   0  0  0  0  0  0  0  0  0  0  0  0
   -2.6919    4.7021    0.0000 C   0  0  0  0  0  0  0  0  0  0  0  0
   -1.8221    4.1982    0.0000 C   0  0  0  0  0  0  0  0  0  0  0  0
   -1.8265    3.1982    0.0000 C   0  0  0  0  0  0  0  0  0  0  0  0
   -2.6918    2.6969    0.0000 C   0  0  0  0  0  0  0  0  0  0  0  0
   -3.5616    3.2008    0.0000 C   0  0  0  0  0  0  0  0  0  0  0  0
   -3.5661    4.2059    0.0000 C   0  0  0  0  0  0  0  0  0  0  0  0
   -2.6918    1.6969    0.0000 C   0  0  0  0  0  0  0  0  0  0  0  0
   -3.5579    1.1969    0.0000 C   0  0  0  0  0  0  0  0  0  0  0  0
   -1.8258    1.1969    0.0000 N   0  0  0  0  0  0  0  0  0  0  0  0
   -1.8258    0.1969    0.0000 C   0  0  0  0  0  0  0  0  0  0  0  0
   -2.6938   -0.3110    0.0000 N   0  0  0  0  0  0  0  0  0  0  0  0
   -2.6938   -1.3168    0.0000 C   0  0  0  0  0  0  0  0  0  0  0  0
   -1.8258   -1.8147    0.0000 N   0  0  0  0  0  0  0  0  0  0  0  0
   -0.9578   -1.3181    0.0000 C   0  0  0  0  0  0  0  0  0  0  0  0
    0.0000   -1.6294    0.0000 C   0  0  0  0  0  0  0  0  0  0  0  0
    0.3090   -2.5805    0.0000 O   0  0  0  0  0  0  0  0  0  0  0  0
    0.5920   -0.8146    0.0000 N   0  0  0  0  0  0  0  0  0  0  0  0
    0.0000    0.0000    0.0000 C   0  0  0  0  0  0  0  0  0  0  0  0
   -0.9578   -0.3110    0.0000 C   0  0  0  0  0  0  0  0  0  0  0  0
    1.5920   -0.8145    0.0000 C   0  0  0  0  0  0  0  0  0  0  0  0
    2.0919    0.0515    0.0000 C   0  0  0  0  0  0  0  0  0  0  0  0
    2.0921   -1.6805    0.0000 C   0  0  0  0  0  0  0  0  0  0  0  0
   -3.5591   -1.8180    0.0000 N   0  0  0  0  0  0  0  0  0  0  0  0
   -3.5548   -2.8180    0.0000 C   0  0  0  0  0  0  0  0  0  0  0  0
   -4.4246   -3.3219    0.0000 C   0  0  0  0  0  0  0  0  0  0  0  0
   -5.2988   -2.8257    0.0000 N   0  0  0  0  0  0  0  0  0  0  0  0
   -5.2942   -1.8205    0.0000 C   0  0  0  0  0  0  0  0  0  0  0  0
   -4.4244   -1.3167    0.0000 C   0  0  0  0  0  0  0  0  0  0  0  0
   -6.1641   -3.3269    0.0000 C   0  0  0  0  0  0  0  0  0  0  0  0
   -6.1627   -4.3269    0.0000 O   0  0  0  0  0  0  0  0  0  0  0  0
   -7.0308   -2.8281    0.0000 C   0  0  0  0  0  0  0  0  0  0  0  0
  1  2  1  0
  2  3  1  0
  3  4  1  0
  4  9  2  0
  4  5  1  0
  5  6  2  0
  6  7  1  0
  7  8  2  0
  8  9  1  0
  7 10  1  0
 10 11  1  6
 10 12  1  0
 12 13  1  0
 13 22  1  0
 13 14  2  0
 14 15  1  0
 15 16  2  0
 16 17  1  0
 17 22  2  0
 17 18  1  0
 18 19  2  0
 18 20  1  0
 20 21  1  0
 21 22  1  0
 20 23  1  0
 23 24  1  0
 23 25  1  0
 15 26  1  0
 26 31  1  0
 26 27  1  0
 27 28  1  0
 28 29  1  0
 29 30  1  0
 30 31  1  0
 29 32  1  0
 32 33  2  0
 32 34  1  0
M  END
>  <SMILES>  (754) 
CCOc1ccc([C@@H](C)Nc2nc(N3CCN(C(C)=O)CC3)nc3c2CN(C(C)C)C3=O)cc1

>  <CollectionName>  (754) 
chembl

>  <LOG PLASMA PROTEIN BINDING (RAT) (% unbound)>  (754) 
1.33425264233

>  <Internal ID>  (754) 


>  <Source>  (754) 
AstraZeneca

$$$$
CHEMBL2011123
     RDKit          2D

 35 38  0  0  1  0  0  0  0  0999 V2000
   -3.5379    7.2058    0.0000 C   0  0  0  0  0  0  0  0  0  0  0  0
   -3.5423    6.2058    0.0000 C   0  0  0  0  0  0  0  0  0  0  0  0
   -2.6785    5.7020    0.0000 O   0  0  0  0  0  0  0  0  0  0  0  0
   -2.6829    4.7020    0.0000 C   0  0  0  0  0  0  0  0  0  0  0  0
   -1.8198    4.1970    0.0000 C   0  0  0  0  0  0  0  0  0  0  0  0
   -1.8198    3.1969    0.0000 C   0  0  0  0  0  0  0  0  0  0  0  0
   -2.6918    2.6969    0.0000 C   0  0  0  0  0  0  0  0  0  0  0  0
   -3.5638    3.1969    0.0000 C   0  0  0  0  0  0  0  0  0  0  0  0
   -3.5549    4.2020    0.0000 C   0  0  0  0  0  0  0  0  0  0  0  0
   -4.4179    4.7071    0.0000 F   0  0  0  0  0  0  0  0  0  0  0  0
   -2.6918    1.6969    0.0000 C   0  0  0  0  0  0  0  0  0  0  0  0
   -3.5579    1.1969    0.0000 C   0  0  0  0  0  0  0  0  0  0  0  0
   -1.8258    1.1969    0.0000 N   0  0  0  0  0  0  0  0  0  0  0  0
   -1.8258    0.1969    0.0000 C   0  0  0  0  0  0  0  0  0  0  0  0
   -2.6938   -0.3110    0.0000 N   0  0  0  0  0  0  0  0  0  0  0  0
   -2.6938   -1.3168    0.0000 C   0  0  0  0  0  0  0  0  0  0  0  0
   -1.8258   -1.8147    0.0000 N   0  0  0  0  0  0  0  0  0  0  0  0
   -0.9578   -1.3181    0.0000 C   0  0  0  0  0  0  0  0  0  0  0  0
    0.0000   -1.6294    0.0000 C   0  0  0  0  0  0  0  0  0  0  0  0
    0.3090   -2.5805    0.0000 O   0  0  0  0  0  0  0  0  0  0  0  0
    0.5920   -0.8146    0.0000 N   0  0  0  0  0  0  0  0  0  0  0  0
    0.0000    0.0000    0.0000 C   0  0  0  0  0  0  0  0  0  0  0  0
   -0.9578   -0.3110    0.0000 C   0  0  0  0  0  0  0  0  0  0  0  0
    1.5920   -0.8145    0.0000 C   0  0  0  0  0  0  0  0  0  0  0  0
    2.0919    0.0515    0.0000 C   0  0  0  0  0  0  0  0  0  0  0  0
    2.0921   -1.6805    0.0000 C   0  0  0  0  0  0  0  0  0  0  0  0
   -3.5591   -1.8180    0.0000 N   0  0  0  0  0  0  0  0  0  0  0  0
   -3.5548   -2.8180    0.0000 C   0  0  0  0  0  0  0  0  0  0  0  0
   -4.4246   -3.3219    0.0000 C   0  0  0  0  0  0  0  0  0  0  0  0
   -5.2988   -2.8257    0.0000 N   0  0  0  0  0  0  0  0  0  0  0  0
   -5.2942   -1.8205    0.0000 C   0  0  0  0  0  0  0  0  0  0  0  0
   -4.4244   -1.3167    0.0000 C   0  0  0  0  0  0  0  0  0  0  0  0
   -6.1641   -3.3269    0.0000 C   0  0  0  0  0  0  0  0  0  0  0  0
   -6.1627   -4.3269    0.0000 O   0  0  0  0  0  0  0  0  0  0  0  0
   -7.0308   -2.8281    0.0000 C   0  0  0  0  0  0  0  0  0  0  0  0
  1  2  1  0
  2  3  1  0
  3  4  1  0
  4  9  2  0
  4  5  1  0
  5  6  2  0
  6  7  1  0
  7  8  2  0
  8  9  1  0
  9 10  1  0
  7 11  1  0
 11 12  1  6
 11 13  1  0
 13 14  1  0
 14 23  1  0
 14 15  2  0
 15 16  1  0
 16 17  2  0
 17 18  1  0
 18 23  2  0
 18 19  1  0
 19 20  2  0
 19 21  1  0
 21 22  1  0
 22 23  1  0
 21 24  1  0
 24 25  1  0
 24 26  1  0
 16 27  1  0
 27 32  1  0
 27 28  1  0
 28 29  1  0
 29 30  1  0
 30 31  1  0
 31 32  1  0
 30 33  1  0
 33 34  2  0
 33 35  1  0
M  END
>  <SMILES>  (755) 
CCOc1ccc([C@@H](C)Nc2nc(N3CCN(C(C)=O)CC3)nc3c2CN(C(C)C)C3=O)cc1F

>  <CollectionName>  (755) 
chembl

>  <LOG PLASMA PROTEIN BINDING (RAT) (% unbound)>  (755) 
1.41077723338

>  <Internal ID>  (755) 


>  <Source>  (755) 
AstraZeneca

$$$$
CHEMBL277474
     RDKit          2D

 14 15  0  0  0  0  0  0  0  0999 V2000
    2.2648    1.2596    0.0000 C   0  0  0  0  0  0  0  0  0  0  0  0
    1.3133    0.9519    0.0000 N   0  0  0  0  0  0  0  0  0  0  0  0
    0.5008    1.5428    0.0000 N   0  0  0  0  0  0  0  0  0  0  0  0
   -0.3065    0.9519    0.0000 C   0  0  0  0  0  0  0  0  0  0  0  0
   -1.2577    1.2605    0.0000 O   0  0  0  0  0  0  0  0  0  0  0  0
    0.0000    0.0000    0.0000 C   0  0  0  0  0  0  0  0  0  0  0  0
    1.0015    0.0000    0.0000 C   0  0  0  0  0  0  0  0  0  0  0  0
    1.5883   -0.8097    0.0000 C   0  0  0  0  0  0  0  0  0  0  0  0
    0.4993    2.5428    0.0000 C   0  0  0  0  0  0  0  0  0  0  0  0
   -0.3735    3.0415    0.0000 C   0  0  0  0  0  0  0  0  0  0  0  0
   -0.3751    4.0415    0.0000 C   0  0  0  0  0  0  0  0  0  0  0  0
    0.4873    4.5479    0.0000 C   0  0  0  0  0  0  0  0  0  0  0  0
    1.3600    4.0492    0.0000 C   0  0  0  0  0  0  0  0  0  0  0  0
    1.3705    3.0441    0.0000 C   0  0  0  0  0  0  0  0  0  0  0  0
  1  2  1  0
  2  7  1  0
  2  3  1  0
  3  4  1  0
  4  5  2  0
  4  6  1  0
  6  7  2  0
  7  8  1  0
  3  9  1  0
  9 14  1  0
  9 10  2  0
 10 11  1  0
 11 12  2  0
 12 13  1  0
 13 14  2  0
M  END
>  <SMILES>  (756) 
Cc1cc(=O)n(-c2ccccc2)n1C

>  <CollectionName>  (756) 
chembl

>  <LOG PLASMA PROTEIN BINDING (RAT) (% unbound)>  (756) 
1.84571801797

>  <Internal ID>  (756) 


>  <Source>  (756) 
AstraZeneca

$$$$
CHEMBL1081913
     RDKit          2D

 26 28  0  0  0  0  0  0  0  0999 V2000
    6.6191   -7.9908    0.0000 C   0  0  0  0  0  0  0  0  0  0  0  0
    6.0300   -7.1828    0.0000 C   0  0  0  0  0  0  0  0  0  0  0  0
    5.2219   -7.7719    0.0000 C   0  0  0  0  0  0  0  0  0  0  0  0
    6.8381   -6.5937    0.0000 C   0  0  0  0  0  0  0  0  0  0  0  0
    5.4409   -6.3747    0.0000 O   0  0  0  0  0  0  0  0  0  0  0  0
    4.4465   -6.4808    0.0000 C   0  0  0  0  0  0  0  0  0  0  0  0
    4.0413   -7.3950    0.0000 O   0  0  0  0  0  0  0  0  0  0  0  0
    3.8574   -5.6728    0.0000 N   0  0  0  0  0  0  0  0  0  0  0  0
    4.2594   -4.7515    0.0000 C   0  0  0  0  0  0  0  0  0  0  0  0
    3.6672   -3.9392    0.0000 C   0  0  0  0  0  0  0  0  0  0  0  0
    2.6731   -4.0482    0.0000 C   0  0  0  0  0  0  0  0  0  0  0  0
    2.2652   -4.9613    0.0000 C   0  0  0  0  0  0  0  0  0  0  0  0
    2.8574   -5.7736    0.0000 C   0  0  0  0  0  0  0  0  0  0  0  0
    2.0840   -3.2402    0.0000 O   0  0  0  0  0  0  0  0  0  0  0  0
    1.0897   -3.3463    0.0000 C   0  0  0  0  0  0  0  0  0  0  0  0
    0.5006   -2.5382    0.0000 C   0  0  0  0  0  0  0  0  0  0  0  0
   -0.4998   -2.5429    0.0000 O   0  0  0  0  0  0  0  0  0  0  0  0
   -0.8110   -1.5877    0.0000 N   0  0  0  0  0  0  0  0  0  0  0  0
    0.0000   -1.0000    0.0000 C   0  0  0  0  0  0  0  0  0  0  0  0
    0.8109   -1.5877    0.0000 N   0  0  0  0  0  0  0  0  0  0  0  0
    0.0000    0.0000    0.0000 C   0  0  0  0  0  0  0  0  0  0  0  0
   -0.8675    0.4975    0.0000 C   0  0  0  0  0  0  0  0  0  0  0  0
   -0.8675    1.5027    0.0000 C   0  0  0  0  0  0  0  0  0  0  0  0
   -0.0000    2.0104    0.0000 N   0  0  0  0  0  0  0  0  0  0  0  0
    0.8675    1.5027    0.0000 C   0  0  0  0  0  0  0  0  0  0  0  0
    0.8675    0.4975    0.0000 C   0  0  0  0  0  0  0  0  0  0  0  0
  1  2  1  0
  2  3  1  0
  2  4  1  0
  2  5  1  0
  5  6  1  0
  6  7  2  0
  6  8  1  0
  8 13  1  0
  8  9  1  0
  9 10  1  0
 10 11  1  0
 11 12  1  0
 12 13  1  0
 11 14  1  0
 14 15  1  0
 15 16  1  0
 16 20  2  0
 16 17  1  0
 17 18  1  0
 18 19  2  0
 19 20  1  0
 19 21  1  0
 21 26  1  0
 21 22  2  0
 22 23  1  0
 23 24  2  0
 24 25  1  0
 25 26  2  0
M  END
>  <SMILES>  (757) 
CC(C)(C)OC(=O)N1CCC(OCc2nc(-c3ccncc3)no2)CC1

>  <CollectionName>  (757) 
chembl

>  <LOG PLASMA PROTEIN BINDING (RAT) (% unbound)>  (757) 
0.876217840592

>  <Internal ID>  (757) 


>  <Source>  (757) 
AstraZeneca

$$$$
CHEMBL1086310
     RDKit          2D

 26 28  0  0  0  0  0  0  0  0999 V2000
    7.6418    3.7111    0.0000 C   0  0  0  0  0  0  0  0  0  0  0  0
    7.3369    2.7587    0.0000 C   0  0  0  0  0  0  0  0  0  0  0  0
    8.0093    2.0185    0.0000 C   0  0  0  0  0  0  0  0  0  0  0  0
    6.3597    2.5465    0.0000 C   0  0  0  0  0  0  0  0  0  0  0  0
    5.6862    3.2858    0.0000 C   0  0  0  0  0  0  0  0  0  0  0  0
    4.7080    3.0779    0.0000 C   0  0  0  0  0  0  0  0  0  0  0  0
    4.4002    2.1209    0.0000 C   0  0  0  0  0  0  0  0  0  0  0  0
    3.4221    1.9131    0.0000 N   0  0  0  0  0  0  0  0  0  0  0  0
    3.1130    0.9620    0.0000 C   0  0  0  0  0  0  0  0  0  0  0  0
    3.7821    0.2189    0.0000 O   0  0  0  0  0  0  0  0  0  0  0  0
    2.1349    0.7541    0.0000 C   0  0  0  0  0  0  0  0  0  0  0  0
    1.8258   -0.1969    0.0000 N   0  0  0  0  0  0  0  0  0  0  0  0
    2.4178   -1.0115    0.0000 C   0  0  0  0  0  0  0  0  0  0  0  0
    1.8258   -1.8263    0.0000 N   0  0  0  0  0  0  0  0  0  0  0  0
    0.8680   -1.5150    0.0000 C   0  0  0  0  0  0  0  0  0  0  0  0
    0.0000   -2.0116    0.0000 N   0  0  0  0  0  0  0  0  0  0  0  0
   -0.0006   -3.0116    0.0000 C   0  0  0  0  0  0  0  0  0  0  0  0
   -0.8680   -1.5137    0.0000 C   0  0  0  0  0  0  0  0  0  0  0  0
   -1.7333   -2.0149    0.0000 O   0  0  0  0  0  0  0  0  0  0  0  0
   -0.8680   -0.5079    0.0000 N   0  0  0  0  0  0  0  0  0  0  0  0
   -1.7355   -0.0104    0.0000 C   0  0  0  0  0  0  0  0  0  0  0  0
    0.0000    0.0000    0.0000 C   0  0  0  0  0  0  0  0  0  0  0  0
    0.0000    1.0000    0.0000 O   0  0  0  0  0  0  0  0  0  0  0  0
    0.8680   -0.5079    0.0000 C   0  0  0  0  0  0  0  0  0  0  0  0
    5.0706    1.3720    0.0000 C   0  0  0  0  0  0  0  0  0  0  0  0
    6.0518    1.5896    0.0000 C   0  0  0  0  0  0  0  0  0  0  0  0
  1  2  1  0
  2  3  1  0
  2  4  1  0
  4 26  2  0
  4  5  1  0
  5  6  2  0
  6  7  1  0
  7  8  1  0
  8  9  1  0
  9 10  2  0
  9 11  1  0
 11 12  1  0
 12 24  1  0
 12 13  1  0
 13 14  2  0
 14 15  1  0
 15 24  2  0
 15 16  1  0
 16 17  1  0
 16 18  1  0
 18 19  2  0
 18 20  1  0
 20 21  1  0
 20 22  1  0
 22 23  2  0
 22 24  1  0
  7 25  2  0
 25 26  1  0
M  END
>  <SMILES>  (758) 
CC(C)c1ccc(NC(=O)Cn2cnc3c2c(=O)n(C)c(=O)n3C)cc1

>  <CollectionName>  (758) 
chembl

>  <LOG PLASMA PROTEIN BINDING (RAT) (% unbound)>  (758) 
1.09272064468

>  <Internal ID>  (758) 


>  <Source>  (758) 
AstraZeneca

$$$$
CHEMBL1090771
     RDKit          2D

 34 36  0  0  1  0  0  0  0  0999 V2000
    4.5266   -6.2970    0.0000 N   0  0  0  0  0  0  0  0  0  0  0  0
    3.9433   -5.4847    0.0000 C   0  0  0  0  0  0  0  0  0  0  0  0
    4.3552   -4.5735    0.0000 O   0  0  0  0  0  0  0  0  0  0  0  0
    2.9483   -5.5837    0.0000 C   0  0  0  0  0  0  0  0  0  0  0  0
    2.5364   -6.4949    0.0000 C   0  0  0  0  0  0  0  0  0  0  0  0
    3.1196   -7.3072    0.0000 C   0  0  0  0  0  0  0  0  0  0  0  0
    2.7078   -8.2185    0.0000 C   0  0  0  0  0  0  0  0  0  0  0  0
    1.7965   -7.8066    0.0000 F   0  0  0  0  0  0  0  0  0  0  0  0
    3.6190   -8.6303    0.0000 F   0  0  0  0  0  0  0  0  0  0  0  0
    2.2959   -9.1297    0.0000 F   0  0  0  0  0  0  0  0  0  0  0  0
    2.3650   -4.7714    0.0000 N   0  0  0  0  0  0  0  0  0  0  0  0
    2.7769   -3.8601    0.0000 C   0  0  0  0  0  0  0  0  0  0  0  0
    1.7562   -2.4386    0.0000 C   0  0  0  0  0  0  0  0  0  0  0  0
    0.7609   -2.5361    0.0000 C   0  0  0  0  0  0  0  0  0  0  0  0
    0.1741   -1.7263    0.0000 C   0  0  0  0  0  0  0  0  0  0  0  0
    0.5868   -0.8097    0.0000 C   0  0  0  0  0  0  0  0  0  0  0  0
    1.5863   -0.7029    0.0000 C   0  0  0  0  0  0  0  0  0  0  0  0
    2.1689   -1.5220    0.0000 C   0  0  0  0  0  0  0  0  0  0  0  0
    3.1641   -1.4245    0.0000 F   0  0  0  0  0  0  0  0  0  0  0  0
    0.0000    0.0000    0.0000 C   0  0  0  0  0  0  0  0  0  0  0  0
    0.3118    0.9518    0.0000 N   0  0  0  0  0  0  0  0  0  0  0  0
   -0.5007    1.5426    0.0000 O   0  0  0  0  0  0  0  0  0  0  0  0
   -1.3080    0.9518    0.0000 C   0  0  0  0  0  0  0  0  0  0  0  0
   -1.0015    0.0000    0.0000 N   0  0  0  0  0  0  0  0  0  0  0  0
    1.3699   -4.8703    0.0000 S   0  0  0  0  0  0  0  0  0  0  0  0
    1.2710   -3.8752    0.0000 O   0  0  0  0  0  0  0  0  0  0  0  0
    1.4689   -5.8654    0.0000 O   0  0  0  0  0  0  0  0  0  0  0  0
    0.3748   -4.9693    0.0000 C   0  0  0  0  0  0  0  0  0  0  0  0
   -0.2096   -4.1578    0.0000 C   0  0  0  0  0  0  0  0  0  0  0  0
   -1.2052   -4.2524    0.0000 C   0  0  0  0  0  0  0  0  0  0  0  0
   -1.6205   -5.1678    0.0000 C   0  0  0  0  0  0  0  0  0  0  0  0
   -2.6160   -5.2624    0.0000 Cl  0  0  0  0  0  0  0  0  0  0  0  0
   -1.0403   -5.9886    0.0000 C   0  0  0  0  0  0  0  0  0  0  0  0
   -0.0405   -5.8846    0.0000 C   0  0  0  0  0  0  0  0  0  0  0  0
  1  2  1  0
  2  3  2  0
  4  2  1  0
  4  5  1  1
  5  6  1  0
  6  7  1  0
  7  8  1  0
  7  9  1  0
  7 10  1  0
  4 11  1  0
 11 12  1  0
 12 13  1  0
 13 18  1  0
 13 14  2  0
 14 15  1  0
 15 16  2  0
 16 17  1  0
 17 18  2  0
 18 19  1  0
 16 20  1  0
 20 24  1  0
 20 21  2  0
 21 22  1  0
 22 23  1  0
 23 24  2  0
 11 25  1  0
 25 26  2  0
 25 27  2  0
 25 28  1  0
 28 34  1  0
 28 29  2  0
 29 30  1  0
 30 31  2  0
 31 32  1  0
 31 33  1  0
 33 34  2  0
M  END
>  <SMILES>  (759) 
NC(=O)[C@@H](CCC(F)(F)F)N(Cc1ccc(-c2ncon2)cc1F)S(=O)(=O)c1ccc(Cl)cc1

>  <CollectionName>  (759) 
chembl

>  <LOG PLASMA PROTEIN BINDING (RAT) (% unbound)>  (759) 
0.0755469613925

>  <Internal ID>  (759) 


>  <Source>  (759) 
AstraZeneca

$$$$
CHEMBL190
     RDKit          2D

 13 14  0  0  0  0  0  0  0  0999 V2000
   -1.7355   -0.0104    0.0000 C   0  0  0  0  0  0  0  0  0  0  0  0
   -0.8680   -0.5079    0.0000 N   0  0  0  0  0  0  0  0  0  0  0  0
   -0.8680   -1.5137    0.0000 C   0  0  0  0  0  0  0  0  0  0  0  0
   -1.7333   -2.0149    0.0000 O   0  0  0  0  0  0  0  0  0  0  0  0
    0.0000   -2.0116    0.0000 N   0  0  0  0  0  0  0  0  0  0  0  0
   -0.0006   -3.0116    0.0000 C   0  0  0  0  0  0  0  0  0  0  0  0
    0.8680   -1.5150    0.0000 C   0  0  0  0  0  0  0  0  0  0  0  0
    1.8258   -1.8263    0.0000 N   0  0  0  0  0  0  0  0  0  0  0  0
    2.4178   -1.0115    0.0000 C   0  0  0  0  0  0  0  0  0  0  0  0
    1.8258   -0.1969    0.0000 N   0  0  0  0  0  0  0  0  0  0  0  0
    0.8680   -0.5079    0.0000 C   0  0  0  0  0  0  0  0  0  0  0  0
    0.0000    0.0000    0.0000 C   0  0  0  0  0  0  0  0  0  0  0  0
    0.0000    1.0000    0.0000 O   0  0  0  0  0  0  0  0  0  0  0  0
  1  2  1  0
  2 12  1  0
  2  3  1  0
  3  4  2  0
  3  5  1  0
  5  6  1  0
  5  7  1  0
  7 11  2  0
  7  8  1  0
  8  9  2  0
  9 10  1  0
 10 11  1  0
 11 12  1  0
 12 13  2  0
M  END
>  <SMILES>  (760) 
Cn1c(=O)c2[nH]cnc2n(C)c1=O

>  <CollectionName>  (760) 
chembl

>  <LOG PLASMA PROTEIN BINDING (RAT) (% unbound)>  (760) 
1.75480685535

>  <Internal ID>  (760) 


>  <Source>  (760) 
AstraZeneca

$$$$
CHEMBL259850
     RDKit          2D

 21 22  0  0  0  0  0  0  0  0999 V2000
    8.1863    4.0776    0.0000 C   0  0  0  0  0  0  0  0  0  0  0  0
    7.4471    4.7511    0.0000 O   0  0  0  0  0  0  0  0  0  0  0  0
    6.4943    4.4476    0.0000 C   0  0  0  0  0  0  0  0  0  0  0  0
    6.2824    3.4650    0.0000 C   0  0  0  0  0  0  0  0  0  0  0  0
    5.3296    3.1614    0.0000 C   0  0  0  0  0  0  0  0  0  0  0  0
    4.5864    3.8306    0.0000 C   0  0  0  0  0  0  0  0  0  0  0  0
    3.6349    3.5229    0.0000 C   0  0  0  0  0  0  0  0  0  0  0  0
    3.4256    2.5451    0.0000 N   0  0  0  0  0  0  0  0  0  0  0  0
    2.4741    2.2374    0.0000 C   0  0  0  0  0  0  0  0  0  0  0  0
    1.7319    2.9076    0.0000 O   0  0  0  0  0  0  0  0  0  0  0  0
    2.2648    1.2596    0.0000 N   0  0  0  0  0  0  0  0  0  0  0  0
    1.3133    0.9519    0.0000 C   0  0  0  0  0  0  0  0  0  0  0  0
    1.0015   -0.0000    0.0000 N   0  0  0  0  0  0  0  0  0  0  0  0
    0.0000    0.0000    0.0000 C   0  0  0  0  0  0  0  0  0  0  0  0
   -0.3065    0.9519    0.0000 C   0  0  0  0  0  0  0  0  0  0  0  0
    0.5008    1.5428    0.0000 S   0  0  0  0  0  0  0  0  0  0  0  0
   -1.2577    1.2605    0.0000 N   0  0  0  0  0  0  0  0  0  0  0  0
   -1.4660    2.2386    0.0000 O   0  0  0  0  0  0  0  0  0  0  0  0
   -2.0005    0.5910    0.0000 O   0  0  0  0  0  0  0  0  0  0  0  0
    4.7982    4.8132    0.0000 C   0  0  0  0  0  0  0  0  0  0  0  0
    5.7532    5.1267    0.0000 C   0  0  0  0  0  0  0  0  0  0  0  0
  1  2  1  0
  2  3  1  0
  3 21  2  0
  3  4  1  0
  4  5  2  0
  5  6  1  0
  6  7  1  0
  7  8  1  0
  8  9  1  0
  9 10  2  0
  9 11  1  0
 11 12  1  0
 12 16  1  0
 12 13  2  0
 13 14  1  0
 14 15  2  0
 15 16  1  0
 15 17  1  0
 17 18  2  0
 17 19  1  0
  6 20  2  0
 20 21  1  0
M  CHG  2  17   1  19  -1
M  END
>  <SMILES>  (761) 
COc1ccc(CNC(=O)Nc2ncc([N+](=O)[O-])s2)cc1

>  <CollectionName>  (761) 
chembl

>  <LOG PLASMA PROTEIN BINDING (RAT) (% unbound)>  (761) 
0.0334237554869

>  <Internal ID>  (761) 


>  <Source>  (761) 
AstraZeneca

$$$$
CHEMBL604710
     RDKit          2D

 35 39  0  0  0  0  0  0  0  0999 V2000
    1.7335    3.0129    0.0000 O   0  0  0  0  0  0  0  0  0  0  0  0
    0.8675    2.5129    0.0000 C   0  0  0  0  0  0  0  0  0  0  0  0
    0.0015    3.0129    0.0000 C   0  0  0  0  0  0  0  0  0  0  0  0
    0.0015    4.0129    0.0000 C   0  0  0  0  0  0  0  0  0  0  0  0
   -0.8646    4.5129    0.0000 C   0  0  0  0  0  0  0  0  0  0  0  0
   -1.7336    4.0077    0.0000 C   0  0  0  0  0  0  0  0  0  0  0  0
   -2.5997    4.5077    0.0000 C   0  0  0  0  0  0  0  0  0  0  0  0
   -2.6055    5.5077    0.0000 C   0  0  0  0  0  0  0  0  0  0  0  0
   -1.7365    6.0129    0.0000 C   0  0  0  0  0  0  0  0  0  0  0  0
   -0.8616    5.5180    0.0000 C   0  0  0  0  0  0  0  0  0  0  0  0
    0.8675    4.5129    0.0000 C   0  0  0  0  0  0  0  0  0  0  0  0
    0.8645    5.5181    0.0000 C   0  0  0  0  0  0  0  0  0  0  0  0
    1.7306    6.0182    0.0000 C   0  0  0  0  0  0  0  0  0  0  0  0
    2.5995    5.5232    0.0000 C   0  0  0  0  0  0  0  0  0  0  0  0
    2.6025    4.5180    0.0000 C   0  0  0  0  0  0  0  0  0  0  0  0
    1.7365    4.0078    0.0000 C   0  0  0  0  0  0  0  0  0  0  0  0
    0.8675    1.5129    0.0000 N   0  0  0  0  0  0  0  0  0  0  0  0
    0.0000    1.0052    0.0000 C   0  0  0  0  0  0  0  0  0  0  0  0
    0.0000    0.0000    0.0000 C   0  0  0  0  0  0  0  0  0  0  0  0
    0.8675   -0.4975    0.0000 N   0  0  0  0  0  0  0  0  0  0  0  0
    1.7350    0.0000    0.0000 C   0  0  0  0  0  0  0  0  0  0  0  0
    1.7350    1.0052    0.0000 C   0  0  0  0  0  0  0  0  0  0  0  0
    0.8675   -1.4975    0.0000 C   0  0  0  0  0  0  0  0  0  0  0  0
    1.7335   -1.9975    0.0000 C   0  0  0  0  0  0  0  0  0  0  0  0
    2.6026   -1.4923    0.0000 C   0  0  0  0  0  0  0  0  0  0  0  0
    3.4686   -1.9923    0.0000 C   0  0  0  0  0  0  0  0  0  0  0  0
    3.4745   -2.9923    0.0000 C   0  0  0  0  0  0  0  0  0  0  0  0
    2.6055   -3.4975    0.0000 C   0  0  0  0  0  0  0  0  0  0  0  0
    1.7306   -3.0026    0.0000 C   0  0  0  0  0  0  0  0  0  0  0  0
    0.0015   -1.9975    0.0000 C   0  0  0  0  0  0  0  0  0  0  0  0
    0.0044   -3.0027    0.0000 C   0  0  0  0  0  0  0  0  0  0  0  0
   -0.8616   -3.5028    0.0000 C   0  0  0  0  0  0  0  0  0  0  0  0
   -1.7305   -3.0078    0.0000 C   0  0  0  0  0  0  0  0  0  0  0  0
   -1.7335   -2.0026    0.0000 C   0  0  0  0  0  0  0  0  0  0  0  0
   -0.8675   -1.4924    0.0000 C   0  0  0  0  0  0  0  0  0  0  0  0
  1  2  2  0
  2  3  1  0
  3  4  1  0
  4  5  1  0
  5 10  1  0
  5  6  2  0
  6  7  1  0
  7  8  2  0
  8  9  1  0
  9 10  2  0
  4 11  1  0
 11 16  1  0
 11 12  2  0
 12 13  1  0
 13 14  2  0
 14 15  1  0
 15 16  2  0
  2 17  1  0
 17 22  1  0
 17 18  1  0
 18 19  1  0
 19 20  1  0
 20 21  1  0
 21 22  1  0
 20 23  1  0
 23 24  1  0
 24 29  1  0
 24 25  2  0
 25 26  1  0
 26 27  2  0
 27 28  1  0
 28 29  2  0
 23 30  1  0
 30 35  1  0
 30 31  2  0
 31 32  1  0
 32 33  2  0
 33 34  1  0
 34 35  2  0
M  END
>  <SMILES>  (762) 
O=C(CC(c1ccccc1)c1ccccc1)N1CCN(C(c2ccccc2)c2ccccc2)CC1

>  <CollectionName>  (762) 
chembl

>  <LOG PLASMA PROTEIN BINDING (RAT) (% unbound)>  (762) 
1.69897000434

>  <Internal ID>  (762) 


>  <Source>  (762) 
AstraZeneca

$$$$
CHEMBL584926
     RDKit          2D

 31 34  0  0  1  0  0  0  0  0999 V2000
   -2.5268   -1.0916    0.0000 C   0  0  0  0  0  0  0  0  0  0  0  0
   -2.1219   -2.0060    0.0000 O   0  0  0  0  0  0  0  0  0  0  0  0
   -1.1276   -2.1125    0.0000 C   0  0  0  0  0  0  0  0  0  0  0  0
   -0.5370   -1.3055    0.0000 C   0  0  0  0  0  0  0  0  0  0  0  0
    0.4578   -1.4077    0.0000 C   0  0  0  0  0  0  0  0  0  0  0  0
    0.8662   -2.3262    0.0000 C   0  0  0  0  0  0  0  0  0  0  0  0
    0.2797   -3.1426    0.0000 C   0  0  0  0  0  0  0  0  0  0  0  0
   -0.7192   -3.0310    0.0000 C   0  0  0  0  0  0  0  0  0  0  0  0
   -1.3099   -3.8380    0.0000 C   0  0  0  0  0  0  0  0  0  0  0  0
    2.6070   -2.5050    0.0000 C   0  0  0  0  0  0  0  0  0  0  0  0
    3.6013   -2.3939    0.0000 N   0  0  0  0  0  0  0  0  0  0  0  0
    4.0122   -3.3107    0.0000 C   0  0  0  0  0  0  0  0  0  0  0  0
    4.9907   -3.5171    0.0000 N   0  0  0  0  0  0  0  0  0  0  0  0
    3.2682   -3.9814    0.0000 N   0  0  0  0  0  0  0  0  0  0  0  0
    3.3745   -4.9757    0.0000 C   0  0  0  0  0  0  0  0  0  0  0  0
    2.3994   -3.4832    0.0000 C   0  0  0  0  0  0  0  0  0  0  0  0
    1.4865   -3.8915    0.0000 O   0  0  0  0  0  0  0  0  0  0  0  0
    2.6026   -1.5050    0.0000 C   0  0  0  0  0  0  0  0  0  0  0  0
    3.4723   -1.0011    0.0000 C   0  0  0  0  0  0  0  0  0  0  0  0
    3.4679   -0.0011    0.0000 C   0  0  0  0  0  0  0  0  0  0  0  0
    2.6026    0.5002    0.0000 C   0  0  0  0  0  0  0  0  0  0  0  0
    2.6025    1.5002    0.0000 F   0  0  0  0  0  0  0  0  0  0  0  0
    1.7328   -0.0038    0.0000 C   0  0  0  0  0  0  0  0  0  0  0  0
    1.7284   -1.0089    0.0000 C   0  0  0  0  0  0  0  0  0  0  0  0
    0.8675    0.4975    0.0000 C   0  0  0  0  0  0  0  0  0  0  0  0
    0.0000    0.0000    0.0000 C   0  0  0  0  0  0  0  0  0  0  0  0
   -0.8675    0.4975    0.0000 C   0  0  0  0  0  0  0  0  0  0  0  0
   -0.8675    1.5027    0.0000 C   0  0  0  0  0  0  0  0  0  0  0  0
   -0.0000    2.0104    0.0000 N   0  0  0  0  0  0  0  0  0  0  0  0
    0.8675    1.5027    0.0000 C   0  0  0  0  0  0  0  0  0  0  0  0
    1.7350    2.0001    0.0000 F   0  0  0  0  0  0  0  0  0  0  0  0
  1  2  1  0
  2  3  1  0
  3  8  2  0
  3  4  1  0
  4  5  2  0
  5  6  1  0
  6  7  2  0
  7  8  1  0
  8  9  1  0
  6 10  1  0
 10 16  1  0
 10 11  1  0
 11 12  2  0
 12 13  1  0
 12 14  1  0
 14 15  1  0
 14 16  1  0
 16 17  2  0
 10 18  1  0
 18 24  1  0
 18 19  2  0
 19 20  1  0
 20 21  2  0
 21 22  1  0
 21 23  1  0
 23 24  2  0
 23 25  1  0
 25 30  1  0
 25 26  2  0
 26 27  1  0
 27 28  2  0
 28 29  1  0
 29 30  2  0
 30 31  1  0
M  END
>  <SMILES>  (763) 
COc1ccc(C2(c3ccc(F)c(-c4cccnc4F)c3)N=C(N)N(C)C2=O)cc1C

>  <CollectionName>  (763) 
chembl

>  <LOG PLASMA PROTEIN BINDING (RAT) (% unbound)>  (763) 
-0.00436480540245

>  <Internal ID>  (763) 


>  <Source>  (763) 
AstraZeneca

$$$$
CHEMBL589973
     RDKit          2D

 38 40  0  0  0  0  0  0  0  0999 V2000
    0.0110   -8.0141    0.0000 C   0  0  0  0  0  0  0  0  0  0  0  0
    0.8756   -7.5115    0.0000 C   0  0  0  0  0  0  0  0  0  0  0  0
    0.8726   -6.5115    0.0000 C   0  0  0  0  0  0  0  0  0  0  0  0
    1.7372   -6.0090    0.0000 C   0  0  0  0  0  0  0  0  0  0  0  0
    1.7342   -5.0090    0.0000 N   0  0  0  0  0  0  0  0  0  0  0  0
    2.5988   -4.5064    0.0000 C   0  0  0  0  0  0  0  0  0  0  0  0
    3.4663   -5.0038    0.0000 O   0  0  0  0  0  0  0  0  0  0  0  0
    2.5958   -3.5064    0.0000 C   0  0  0  0  0  0  0  0  0  0  0  0
    3.4663   -3.0038    0.0000 C   0  0  0  0  0  0  0  0  0  0  0  0
    3.4634   -2.0038    0.0000 C   0  0  0  0  0  0  0  0  0  0  0  0
    2.5988   -1.5013    0.0000 C   0  0  0  0  0  0  0  0  0  0  0  0
    2.6003   -0.5013    0.0000 O   0  0  0  0  0  0  0  0  0  0  0  0
    1.7350   -0.0000    0.0000 C   0  0  0  0  0  0  0  0  0  0  0  0
    0.8675   -0.4975    0.0000 C   0  0  0  0  0  0  0  0  0  0  0  0
    0.0000    0.0000    0.0000 C   0  0  0  0  0  0  0  0  0  0  0  0
    0.0000    1.0052    0.0000 C   0  0  0  0  0  0  0  0  0  0  0  0
   -0.8675    1.5026    0.0000 C   0  0  0  0  0  0  0  0  0  0  0  0
   -1.7320    1.0001    0.0000 C   0  0  0  0  0  0  0  0  0  0  0  0
   -1.7291    0.0001    0.0000 O   0  0  0  0  0  0  0  0  0  0  0  0
   -2.5995    1.4975    0.0000 O   0  0  0  0  0  0  0  0  0  0  0  0
    0.8675    1.5129    0.0000 C   0  0  0  0  0  0  0  0  0  0  0  0
    1.7350    1.0052    0.0000 C   0  0  0  0  0  0  0  0  0  0  0  0
    2.6025    1.5026    0.0000 O   0  0  0  0  0  0  0  0  0  0  0  0
    3.4670    1.0001    0.0000 C   0  0  0  0  0  0  0  0  0  0  0  0
    1.7283   -2.0039    0.0000 C   0  0  0  0  0  0  0  0  0  0  0  0
    0.8638   -1.5013    0.0000 N   0  0  0  0  0  0  0  0  0  0  0  0
   -0.0037   -1.9987    0.0000 S   0  0  0  0  0  0  0  0  0  0  0  0
   -0.5012   -1.1312    0.0000 O   0  0  0  0  0  0  0  0  0  0  0  0
    0.4937   -2.8662    0.0000 O   0  0  0  0  0  0  0  0  0  0  0  0
   -0.8712   -2.4962    0.0000 C   0  0  0  0  0  0  0  0  0  0  0  0
   -0.8756   -3.4962    0.0000 C   0  0  0  0  0  0  0  0  0  0  0  0
   -1.7410   -3.9974    0.0000 C   0  0  0  0  0  0  0  0  0  0  0  0
   -2.6107   -3.4935    0.0000 C   0  0  0  0  0  0  0  0  0  0  0  0
   -3.4760   -3.9948    0.0000 Cl  0  0  0  0  0  0  0  0  0  0  0  0
   -2.6152   -2.4884    0.0000 C   0  0  0  0  0  0  0  0  0  0  0  0
   -1.7410   -1.9923    0.0000 C   0  0  0  0  0  0  0  0  0  0  0  0
   -1.7365   -0.9923    0.0000 Cl  0  0  0  0  0  0  0  0  0  0  0  0
    1.7224   -3.0090    0.0000 C   0  0  0  0  0  0  0  0  0  0  0  0
  1  2  1  0
  2  3  1  0
  3  4  1  0
  4  5  1  0
  5  6  1  0
  6  7  2  0
  6  8  1  0
  8 38  2  0
  8  9  1  0
  9 10  2  0
 10 11  1  0
 11 12  1  0
 12 13  1  0
 13 22  1  0
 13 14  2  0
 14 15  1  0
 15 16  2  0
 16 17  1  0
 17 18  1  0
 18 19  2  0
 18 20  1  0
 16 21  1  0
 21 22  2  0
 22 23  1  0
 23 24  1  0
 11 25  2  0
 25 26  1  0
 26 27  1  0
 27 28  2  0
 27 29  2  0
 27 30  1  0
 30 36  1  0
 30 31  2  0
 31 32  1  0
 32 33  2  0
 33 34  1  0
 33 35  1  0
 35 36  2  0
 36 37  1  0
 25 38  1  0
M  END
>  <SMILES>  (764) 
CCCCNC(=O)c1ccc(Oc2ccc(CC(=O)O)cc2OC)c(NS(=O)(=O)c2ccc(Cl)cc2Cl)c1

>  <CollectionName>  (764) 
chembl

>  <LOG PLASMA PROTEIN BINDING (RAT) (% unbound)>  (764) 
-0.721246399047

>  <Internal ID>  (764) 


>  <Source>  (764) 
AstraZeneca

$$$$
CHEMBL742
     RDKit          2D

 16 17  0  0  1  0  0  0  0  0999 V2000
    3.9266    0.6128    0.0000 C   0  0  0  0  0  0  0  0  0  0  0  0
    2.9418    0.4386    0.0000 N   0  0  0  0  0  0  0  0  0  0  0  0
    2.6003   -0.5013    0.0000 C   0  0  0  0  0  0  0  0  0  0  0  0
    1.9516   -1.2690    0.0000 C   0  0  0  0  0  0  0  0  0  0  0  0
    2.3033   -2.2106    0.0000 C   0  0  0  0  0  0  0  0  0  0  0  0
    3.2936   -2.3827    0.0000 C   0  0  0  0  0  0  0  0  0  0  0  0
    3.9323   -1.6132    0.0000 C   0  0  0  0  0  0  0  0  0  0  0  0
    3.5907   -0.6733    0.0000 C   0  0  0  0  0  0  0  0  0  0  0  0
    4.7142    0.6684    0.0000 O   0  0  0  0  0  0  0  0  0  0  0  0
    1.7350    0.0000    0.0000 C   0  0  0  0  0  0  0  0  0  0  0  0
    0.8675   -0.4975    0.0000 C   0  0  0  0  0  0  0  0  0  0  0  0
    0.0000    0.0000    0.0000 C   0  0  0  0  0  0  0  0  0  0  0  0
    0.0000    1.0052    0.0000 C   0  0  0  0  0  0  0  0  0  0  0  0
    0.8675    1.5129    0.0000 C   0  0  0  0  0  0  0  0  0  0  0  0
    1.7350    1.0052    0.0000 C   0  0  0  0  0  0  0  0  0  0  0  0
    2.6025    1.5026    0.0000 Cl  0  0  0  0  0  0  0  0  0  0  0  0
  1  2  1  0
  2  3  1  0
  3  8  1  0
  3  4  1  0
  4  5  1  0
  5  6  1  0
  6  7  1  0
  7  8  1  0
  8  9  2  0
  3 10  1  0
 10 15  1  0
 10 11  2  0
 11 12  1  0
 12 13  2  0
 13 14  1  0
 14 15  2  0
 15 16  1  0
M  END
>  <SMILES>  (765) 
CNC1(c2ccccc2Cl)CCCCC1=O

>  <CollectionName>  (765) 
chembl

>  <LOG PLASMA PROTEIN BINDING (RAT) (% unbound)>  (765) 
1.7416242575

>  <Internal ID>  (765) 


>  <Source>  (765) 
AstraZeneca

$$$$
CHEMBL1518
     RDKit          2D

 11 11  0  0  0  0  0  0  0  0999 V2000
   -2.5995    1.4975    0.0000 C   0  0  0  0  0  0  0  0  0  0  0  0
   -1.7320    1.0001    0.0000 C   0  0  0  0  0  0  0  0  0  0  0  0
   -0.8675    1.5026    0.0000 C   0  0  0  0  0  0  0  0  0  0  0  0
    0.0000    1.0052    0.0000 C   0  0  0  0  0  0  0  0  0  0  0  0
    0.0000    0.0000    0.0000 C   0  0  0  0  0  0  0  0  0  0  0  0
    0.8675   -0.4975    0.0000 C   0  0  0  0  0  0  0  0  0  0  0  0
    0.8675   -1.4975    0.0000 O   0  0  0  0  0  0  0  0  0  0  0  0
    1.7350    0.0000    0.0000 N   0  0  0  0  0  0  0  0  0  0  0  0
    1.7350    1.0052    0.0000 C   0  0  0  0  0  0  0  0  0  0  0  0
    2.6025    1.5026    0.0000 S   0  0  0  0  0  0  0  0  0  0  0  0
    0.8675    1.5129    0.0000 N   0  0  0  0  0  0  0  0  0  0  0  0
  1  2  1  0
  2  3  1  0
  3  4  1  0
  4 11  1  0
  4  5  2  0
  5  6  1  0
  6  7  2  0
  6  8  1  0
  8  9  1  0
  9 10  2  0
  9 11  1  0
M  END
>  <SMILES>  (766) 
CCCc1cc(=O)[nH]c(=S)[nH]1

>  <CollectionName>  (766) 
chembl

>  <LOG PLASMA PROTEIN BINDING (RAT) (% unbound)>  (766) 
1.79518458968

>  <Internal ID>  (766) 


>  <Source>  (766) 
AstraZeneca

$$$$
CHEMBL1938680
     RDKit          2D

 27 30  0  0  0  0  0  0  0  0999 V2000
    2.8104   11.8100    0.0000 Cl  0  0  0  0  0  0  0  0  0  0  0  0
    2.2241   10.9999    0.0000 C   0  0  0  0  0  0  0  0  0  0  0  0
    2.6374   10.0836    0.0000 C   0  0  0  0  0  0  0  0  0  0  0  0
    2.0511    9.2734    0.0000 C   0  0  0  0  0  0  0  0  0  0  0  0
    1.0558    9.3703    0.0000 C   0  0  0  0  0  0  0  0  0  0  0  0
    0.6425   10.2866    0.0000 C   0  0  0  0  0  0  0  0  0  0  0  0
    1.2246   11.1061    0.0000 C   0  0  0  0  0  0  0  0  0  0  0  0
    0.4731    8.5576    0.0000 C   0  0  0  0  0  0  0  0  0  0  0  0
    0.7911    7.6091    0.0000 O   0  0  0  0  0  0  0  0  0  0  0  0
   -0.0185    7.0142    0.0000 C   0  0  0  0  0  0  0  0  0  0  0  0
   -0.8309    7.6002    0.0000 C   0  0  0  0  0  0  0  0  0  0  0  0
   -0.5269    8.5544    0.0000 C   0  0  0  0  0  0  0  0  0  0  0  0
   -0.0141    6.0142    0.0000 C   0  0  0  0  0  0  0  0  0  0  0  0
   -0.8779    5.5104    0.0000 O   0  0  0  0  0  0  0  0  0  0  0  0
    0.8542    5.5180    0.0000 N   0  0  0  0  0  0  0  0  0  0  0  0
    0.8586    4.5180    0.0000 C   0  0  0  0  0  0  0  0  0  0  0  0
   -0.0046    4.0130    0.0000 C   0  0  0  0  0  0  0  0  0  0  0  0
   -0.0045    3.0129    0.0000 C   0  0  0  0  0  0  0  0  0  0  0  0
    0.8675    2.5129    0.0000 C   0  0  0  0  0  0  0  0  0  0  0  0
    1.7395    3.0129    0.0000 C   0  0  0  0  0  0  0  0  0  0  0  0
    1.7306    4.0180    0.0000 C   0  0  0  0  0  0  0  0  0  0  0  0
    0.8675    1.5129    0.0000 N   0  0  0  0  0  0  0  0  0  0  0  0
    0.0000    1.0052    0.0000 C   0  0  0  0  0  0  0  0  0  0  0  0
    0.0000    0.0000    0.0000 C   0  0  0  0  0  0  0  0  0  0  0  0
    0.8675   -0.4975    0.0000 N   0  0  0  0  0  0  0  0  0  0  0  0
    1.7350    0.0000    0.0000 C   0  0  0  0  0  0  0  0  0  0  0  0
    1.7350    1.0052    0.0000 C   0  0  0  0  0  0  0  0  0  0  0  0
  1  2  1  0
  2  7  2  0
  2  3  1  0
  3  4  2  0
  4  5  1  0
  5  6  2  0
  6  7  1  0
  5  8  1  0
  8 12  2  0
  8  9  1  0
  9 10  1  0
 10 11  2  0
 11 12  1  0
 10 13  1  0
 13 14  2  0
 13 15  1  0
 15 16  1  0
 16 21  1  0
 16 17  2  0
 17 18  1  0
 18 19  2  0
 19 20  1  0
 20 21  2  0
 19 22  1  0
 22 27  1  0
 22 23  1  0
 23 24  1  0
 24 25  1  0
 25 26  1  0
 26 27  1  0
M  END
>  <SMILES>  (767) 
O=C(Nc1ccc(N2CCNCC2)cc1)c1ccc(-c2ccc(Cl)cc2)o1

>  <CollectionName>  (767) 
chembl

>  <LOG PLASMA PROTEIN BINDING (RAT) (% unbound)>  (767) 
-0.259637310506

>  <Internal ID>  (767) 


>  <Source>  (767) 
AstraZeneca

$$$$
CHEMBL1944693
     RDKit          2D

 35 38  0  0  1  0  0  0  0  0999 V2000
   -7.7893    7.5445    0.0000 C   0  0  0  0  0  0  0  0  0  0  0  0
   -8.6590    7.0509    0.0000 O   0  0  0  0  0  0  0  0  0  0  0  0
   -8.6664    6.0510    0.0000 C   0  0  0  0  0  0  0  0  0  0  0  0
   -9.5420    5.5574    0.0000 C   0  0  0  0  0  0  0  0  0  0  0  0
   -9.5405    4.5523    0.0000 C   0  0  0  0  0  0  0  0  0  0  0  0
   -8.6723    4.0458    0.0000 C   0  0  0  0  0  0  0  0  0  0  0  0
   -7.8054    4.5445    0.0000 C   0  0  0  0  0  0  0  0  0  0  0  0
   -7.7981    5.5445    0.0000 C   0  0  0  0  0  0  0  0  0  0  0  0
   -6.9291    6.0394    0.0000 C   0  0  0  0  0  0  0  0  0  0  0  0
   -6.0661    5.5343    0.0000 C   0  0  0  0  0  0  0  0  0  0  0  0
   -5.1971    6.0291    0.0000 N   0  0  0  0  0  0  0  0  0  0  0  0
   -4.3340    5.5240    0.0000 C   0  0  0  0  0  0  0  0  0  0  0  0
   -3.4651    6.0189    0.0000 C   0  0  0  0  0  0  0  0  0  0  0  0
   -3.4621    7.0241    0.0000 C   0  0  0  0  0  0  0  0  0  0  0  0
   -2.5931    7.5191    0.0000 C   0  0  0  0  0  0  0  0  0  0  0  0
   -1.7271    7.0190    0.0000 C   0  0  0  0  0  0  0  0  0  0  0  0
   -1.7301    6.0138    0.0000 C   0  0  0  0  0  0  0  0  0  0  0  0
   -0.8641    5.5138    0.0000 C   0  0  0  0  0  0  0  0  0  0  0  0
   -0.8641    4.5138    0.0000 C   0  0  0  0  0  0  0  0  0  0  0  0
    0.0020    4.0138    0.0000 N   0  0  0  0  0  0  0  0  0  0  0  0
    0.0020    3.0138    0.0000 C   0  0  0  0  0  0  0  0  0  0  0  0
    0.8680    2.5138    0.0000 C   0  0  0  0  0  0  0  0  0  0  0  0
    1.7340    3.0138    0.0000 O   0  0  0  0  0  0  0  0  0  0  0  0
    0.8680    1.5138    0.0000 C   0  0  0  0  0  0  0  0  0  0  0  0
    0.0000    1.0058    0.0000 C   0  0  0  0  0  0  0  0  0  0  0  0
    0.0000    0.0000    0.0000 C   0  0  0  0  0  0  0  0  0  0  0  0
    0.8680   -0.4978    0.0000 C   0  0  0  0  0  0  0  0  0  0  0  0
    0.8675   -1.4978    0.0000 O   0  0  0  0  0  0  0  0  0  0  0  0
    1.7360   -0.0012    0.0000 C   0  0  0  0  0  0  0  0  0  0  0  0
    2.6938   -0.3125    0.0000 N   0  0  0  0  0  0  0  0  0  0  0  0
    3.2858    0.5023    0.0000 C   0  0  0  0  0  0  0  0  0  0  0  0
    4.2858    0.5024    0.0000 O   0  0  0  0  0  0  0  0  0  0  0  0
    2.6938    1.3169    0.0000 S   0  0  0  0  0  0  0  0  0  0  0  0
    1.7360    1.0058    0.0000 C   0  0  0  0  0  0  0  0  0  0  0  0
   -2.5991    5.5087    0.0000 C   0  0  0  0  0  0  0  0  0  0  0  0
  1  2  1  0
  2  3  1  0
  3  8  2  0
  3  4  1  0
  4  5  2  0
  5  6  1  0
  6  7  2  0
  7  8  1  0
  8  9  1  0
  9 10  1  0
 10 11  1  0
 11 12  1  0
 12 13  1  0
 13 35  1  0
 13 14  2  0
 14 15  1  0
 15 16  2  0
 16 17  1  0
 17 18  1  0
 18 19  1  0
 19 20  1  0
 20 21  1  0
 21 22  1  0
 22 23  1  6
 22 24  1  0
 24 34  1  0
 24 25  2  0
 25 26  1  0
 26 27  2  0
 27 28  1  0
 27 29  1  0
 29 34  2  0
 29 30  1  0
 30 31  1  0
 31 32  2  0
 31 33  1  0
 33 34  1  0
 17 35  2  0
M  END
>  <SMILES>  (768) 
COc1ccccc1CCNCc1cccc(CCNC[C@H](O)c2ccc(O)c3[nH]c(=O)sc23)c1

>  <CollectionName>  (768) 
chembl

>  <LOG PLASMA PROTEIN BINDING (RAT) (% unbound)>  (768) 
0.922206277439

>  <Internal ID>  (768) 


>  <Source>  (768) 
AstraZeneca

$$$$
CHEMBL1483
     RDKit          2D

 18 19  0  0  0  0  0  0  0  0999 V2000
   -1.7408    4.0007    0.0000 C   0  0  0  0  0  0  0  0  0  0  0  0
   -1.7379    3.0007    0.0000 C   0  0  0  0  0  0  0  0  0  0  0  0
   -0.8704    2.5033    0.0000 C   0  0  0  0  0  0  0  0  0  0  0  0
   -0.8675    1.5033    0.0000 S   0  0  0  0  0  0  0  0  0  0  0  0
    0.0000    1.0058    0.0000 C   0  0  0  0  0  0  0  0  0  0  0  0
    0.0000    0.0000    0.0000 C   0  0  0  0  0  0  0  0  0  0  0  0
    0.8680   -0.4979    0.0000 C   0  0  0  0  0  0  0  0  0  0  0  0
    1.7360   -0.0013    0.0000 C   0  0  0  0  0  0  0  0  0  0  0  0
    2.6938   -0.3126    0.0000 N   0  0  0  0  0  0  0  0  0  0  0  0
    3.2858    0.5022    0.0000 C   0  0  0  0  0  0  0  0  0  0  0  0
    4.2858    0.5023    0.0000 N   0  0  0  0  0  0  0  0  0  0  0  0
    4.7859   -0.3637    0.0000 C   0  0  0  0  0  0  0  0  0  0  0  0
    4.2859   -1.2298    0.0000 O   0  0  0  0  0  0  0  0  0  0  0  0
    5.7859   -0.3637    0.0000 O   0  0  0  0  0  0  0  0  0  0  0  0
    6.2859   -1.2297    0.0000 C   0  0  0  0  0  0  0  0  0  0  0  0
    2.6938    1.3168    0.0000 N   0  0  0  0  0  0  0  0  0  0  0  0
    1.7360    1.0058    0.0000 C   0  0  0  0  0  0  0  0  0  0  0  0
    0.8680    1.5137    0.0000 C   0  0  0  0  0  0  0  0  0  0  0  0
  1  2  1  0
  2  3  1  0
  3  4  1  0
  4  5  1  0
  5 18  2  0
  5  6  1  0
  6  7  2  0
  7  8  1  0
  8 17  2  0
  8  9  1  0
  9 10  2  0
 10 11  1  0
 11 12  1  0
 12 13  2  0
 12 14  1  0
 14 15  1  0
 10 16  1  0
 16 17  1  0
 17 18  1  0
M  END
>  <SMILES>  (769) 
CCCSc1ccc2nc(NC(=O)OC)[nH]c2c1

>  <CollectionName>  (769) 
chembl

>  <LOG PLASMA PROTEIN BINDING (RAT) (% unbound)>  (769) 
0.76417613239

>  <Internal ID>  (769) 


>  <Source>  (769) 
AstraZeneca

$$$$
CHEMBL1484
     RDKit          2D

 35 37  0  0  1  0  0  0  0  0999 V2000
   -2.5966   -1.5050    0.0000 C   0  0  0  0  0  0  0  0  0  0  0  0
   -1.7313   -1.0038    0.0000 O   0  0  0  0  0  0  0  0  0  0  0  0
   -1.7328   -0.0038    0.0000 C   0  0  0  0  0  0  0  0  0  0  0  0
   -2.5995    0.4950    0.0000 O   0  0  0  0  0  0  0  0  0  0  0  0
   -0.8675    0.4975    0.0000 C   0  0  0  0  0  0  0  0  0  0  0  0
   -0.8675    1.5027    0.0000 C   0  0  0  0  0  0  0  0  0  0  0  0
   -1.7350    2.0001    0.0000 C   0  0  0  0  0  0  0  0  0  0  0  0
   -0.0000    2.0104    0.0000 N   0  0  0  0  0  0  0  0  0  0  0  0
    0.8675    1.5027    0.0000 C   0  0  0  0  0  0  0  0  0  0  0  0
    0.8675    0.4975    0.0000 C   0  0  0  0  0  0  0  0  0  0  0  0
    0.0000    0.0000    0.0000 C   0  0  0  0  0  0  0  0  0  0  0  0
    0.0000   -1.0000    0.0000 C   0  0  0  0  0  0  0  0  0  0  0  0
   -0.8720   -1.5000    0.0000 C   0  0  0  0  0  0  0  0  0  0  0  0
   -0.8721   -2.5001    0.0000 C   0  0  0  0  0  0  0  0  0  0  0  0
   -0.0089   -3.0051    0.0000 C   0  0  0  0  0  0  0  0  0  0  0  0
    0.8631   -2.5051    0.0000 C   0  0  0  0  0  0  0  0  0  0  0  0
    0.8720   -1.5000    0.0000 C   0  0  0  0  0  0  0  0  0  0  0  0
    1.7261   -3.0102    0.0000 N   0  0  0  0  0  0  0  0  0  0  0  0
    1.7202   -4.0102    0.0000 O   0  0  0  0  0  0  0  0  0  0  0  0
    2.5951   -2.5153    0.0000 O   0  0  0  0  0  0  0  0  0  0  0  0
    1.7328   -0.0038    0.0000 C   0  0  0  0  0  0  0  0  0  0  0  0
    2.5995    0.4950    0.0000 O   0  0  0  0  0  0  0  0  0  0  0  0
    1.7313   -1.0038    0.0000 O   0  0  0  0  0  0  0  0  0  0  0  0
    2.5966   -1.5050    0.0000 C   0  0  0  0  0  0  0  0  0  0  0  0
    3.4634   -1.0063    0.0000 C   0  0  0  0  0  0  0  0  0  0  0  0
    4.3287   -1.5075    0.0000 N   0  0  0  0  0  0  0  0  0  0  0  0
    4.3272   -2.5075    0.0000 C   0  0  0  0  0  0  0  0  0  0  0  0
    5.1954   -1.0088    0.0000 C   0  0  0  0  0  0  0  0  0  0  0  0
    6.0607   -1.5100    0.0000 C   0  0  0  0  0  0  0  0  0  0  0  0
    6.0563   -2.5152    0.0000 C   0  0  0  0  0  0  0  0  0  0  0  0
    6.9216   -3.0165    0.0000 C   0  0  0  0  0  0  0  0  0  0  0  0
    7.7913   -2.5229    0.0000 C   0  0  0  0  0  0  0  0  0  0  0  0
    7.7957   -1.5177    0.0000 C   0  0  0  0  0  0  0  0  0  0  0  0
    6.9305   -1.0062    0.0000 C   0  0  0  0  0  0  0  0  0  0  0  0
    1.7350    2.0001    0.0000 C   0  0  0  0  0  0  0  0  0  0  0  0
  1  2  1  0
  2  3  1  0
  3  4  2  0
  3  5  1  0
  5 11  1  0
  5  6  2  0
  6  7  1  0
  6  8  1  0
  8  9  1  0
  9 10  2  0
 10 11  1  0
 11 12  1  0
 12 17  1  0
 12 13  2  0
 13 14  1  0
 14 15  2  0
 15 16  1  0
 16 17  2  0
 16 18  1  0
 18 19  2  0
 18 20  1  0
 10 21  1  0
 21 22  2  0
 21 23  1  0
 23 24  1  0
 24 25  1  0
 25 26  1  0
 26 27  1  0
 26 28  1  0
 28 29  1  0
 29 34  1  0
 29 30  2  0
 30 31  1  0
 31 32  2  0
 32 33  1  0
 33 34  2  0
  9 35  1  0
M  CHG  2  18   1  20  -1
M  END
>  <SMILES>  (770) 
COC(=O)C1=C(C)NC(C)=C(C(=O)OCCN(C)Cc2ccccc2)C1c1cccc([N+](=O)[O-])c1

>  <CollectionName>  (770) 
chembl

>  <LOG PLASMA PROTEIN BINDING (RAT) (% unbound)>  (770) 
-0.408935392974

>  <Internal ID>  (770) 


>  <Source>  (770) 
AstraZeneca

$$$$
CHEMBL212432
     RDKit          2D

 31 32  0  0  1  0  0  0  0  0999 V2000
   -2.6025    2.4975    0.0000 N   0  0  0  0  0  0  0  0  0  0  0  0
   -2.5995    1.4975    0.0000 C   0  0  0  0  0  0  0  0  0  0  0  0
   -1.7320    1.0001    0.0000 N   0  0  0  0  0  0  0  0  0  0  0  0
   -0.8675    1.5026    0.0000 C   0  0  0  0  0  0  0  0  0  0  0  0
   -0.8704    2.5026    0.0000 O   0  0  0  0  0  0  0  0  0  0  0  0
    0.0000    1.0052    0.0000 C   0  0  0  0  0  0  0  0  0  0  0  0
    0.8675    1.5129    0.0000 N   0  0  0  0  0  0  0  0  0  0  0  0
    1.7350    1.0052    0.0000 C   0  0  0  0  0  0  0  0  0  0  0  0
    2.6025    1.5026    0.0000 Cl  0  0  0  0  0  0  0  0  0  0  0  0
    1.7350    0.0000    0.0000 C   0  0  0  0  0  0  0  0  0  0  0  0
    2.6003   -0.5013    0.0000 N   0  0  0  0  0  0  0  0  0  0  0  0
    0.8675   -0.4975    0.0000 N   0  0  0  0  0  0  0  0  0  0  0  0
    0.0000    0.0000    0.0000 C   0  0  0  0  0  0  0  0  0  0  0  0
   -0.8653   -0.5013    0.0000 N   0  0  0  0  0  0  0  0  0  0  0  0
   -3.4641    0.9950    0.0000 N   0  0  0  0  0  0  0  0  0  0  0  0
   -4.3316    1.4924    0.0000 C   0  0  0  0  0  0  0  0  0  0  0  0
   -5.1961    0.9899    0.0000 C   0  0  0  0  0  0  0  0  0  0  0  0
   -6.0636    1.4873    0.0000 C   0  0  0  0  0  0  0  0  0  0  0  0
   -6.9282    0.9848    0.0000 C   0  0  0  0  0  0  0  0  0  0  0  0
   -7.7957    1.4822    0.0000 C   0  0  0  0  0  0  0  0  0  0  0  0
   -7.8001    2.4822    0.0000 C   0  0  0  0  0  0  0  0  0  0  0  0
   -8.6654    2.9835    0.0000 C   0  0  0  0  0  0  0  0  0  0  0  0
   -9.5352    2.4795    0.0000 C   0  0  0  0  0  0  0  0  0  0  0  0
  -10.4005    2.9808    0.0000 O   0  0  0  0  0  0  0  0  0  0  0  0
  -10.3990    3.9808    0.0000 C   0  0  0  0  0  0  0  0  0  0  0  0
  -11.2643    4.4821    0.0000 C   0  0  0  0  0  0  0  0  0  0  0  0
  -12.1311    3.9833    0.0000 O   0  0  0  0  0  0  0  0  0  0  0  0
  -11.2629    5.4821    0.0000 C   0  0  0  0  0  0  0  0  0  0  0  0
  -12.1282    5.9833    0.0000 O   0  0  0  0  0  0  0  0  0  0  0  0
   -9.5396    1.4744    0.0000 C   0  0  0  0  0  0  0  0  0  0  0  0
   -8.6654    0.9783    0.0000 C   0  0  0  0  0  0  0  0  0  0  0  0
  1  2  1  0
  2  3  2  0
  3  4  1  0
  4  5  2  0
  4  6  1  0
  6 13  1  0
  6  7  2  0
  7  8  1  0
  8  9  1  0
  8 10  2  0
 10 11  1  0
 10 12  1  0
 12 13  2  0
 13 14  1  0
  2 15  1  0
 15 16  1  0
 16 17  1  0
 17 18  1  0
 18 19  1  0
 19 20  1  0
 20 31  1  0
 20 21  2  0
 21 22  1  0
 22 23  2  0
 23 24  1  0
 24 25  1  0
 25 26  1  0
 26 27  1  0
 26 28  1  0
 28 29  1  0
 23 30  1  0
 30 31  2  0
M  END
>  <SMILES>  (771) 
N/C(=N\C(=O)c1nc(Cl)c(N)nc1N)NCCCCc1ccc(OCC(O)CO)cc1

>  <CollectionName>  (771) 
chembl

>  <LOG PLASMA PROTEIN BINDING (RAT) (% unbound)>  (771) 
1.4965145187

>  <Internal ID>  (771) 


>  <Source>  (771) 
AstraZeneca

$$$$
CHEMBL219916
     RDKit          2D

 30 34  0  0  0  0  0  0  0  0999 V2000
   11.5669    2.0872    0.0000 Cl  0  0  0  0  0  0  0  0  0  0  0  0
   10.7001    2.5859    0.0000 C   0  0  0  0  0  0  0  0  0  0  0  0
    9.8291    2.0830    0.0000 C   0  0  0  0  0  0  0  0  0  0  0  0
    8.9552    2.5808    0.0000 C   0  0  0  0  0  0  0  0  0  0  0  0
    8.9611    3.5865    0.0000 C   0  0  0  0  0  0  0  0  0  0  0  0
    8.2128    4.2604    0.0000 N   0  0  0  0  0  0  0  0  0  0  0  0
    7.2347    4.0526    0.0000 C   0  0  0  0  0  0  0  0  0  0  0  0
    6.9284    3.1006    0.0000 C   0  0  0  0  0  0  0  0  0  0  0  0
    5.9452    2.8916    0.0000 C   0  0  0  0  0  0  0  0  0  0  0  0
    5.2682    3.6346    0.0000 N   0  0  0  0  0  0  0  0  0  0  0  0
    4.2901    3.4268    0.0000 C   0  0  0  0  0  0  0  0  0  0  0  0
    3.9810    2.4757    0.0000 C   0  0  0  0  0  0  0  0  0  0  0  0
    3.0029    2.2678    0.0000 C   0  0  0  0  0  0  0  0  0  0  0  0
    2.6938    1.3168    0.0000 N   0  0  0  0  0  0  0  0  0  0  0  0
    3.2858    0.5022    0.0000 C   0  0  0  0  0  0  0  0  0  0  0  0
    4.2858    0.5023    0.0000 O   0  0  0  0  0  0  0  0  0  0  0  0
    2.6938   -0.3126    0.0000 N   0  0  0  0  0  0  0  0  0  0  0  0
    1.7360   -0.0013    0.0000 C   0  0  0  0  0  0  0  0  0  0  0  0
    0.8680   -0.4979    0.0000 C   0  0  0  0  0  0  0  0  0  0  0  0
    0.0000    0.0000    0.0000 C   0  0  0  0  0  0  0  0  0  0  0  0
    0.0000    1.0058    0.0000 C   0  0  0  0  0  0  0  0  0  0  0  0
    0.8680    1.5137    0.0000 C   0  0  0  0  0  0  0  0  0  0  0  0
    1.7360    1.0058    0.0000 C   0  0  0  0  0  0  0  0  0  0  0  0
    5.5845    4.5887    0.0000 C   0  0  0  0  0  0  0  0  0  0  0  0
    6.5677    4.7977    0.0000 C   0  0  0  0  0  0  0  0  0  0  0  0
    8.6223    5.1804    0.0000 C   0  0  0  0  0  0  0  0  0  0  0  0
    8.1223    6.0464    0.0000 O   0  0  0  0  0  0  0  0  0  0  0  0
    9.6240    5.0751    0.0000 N   0  0  0  0  0  0  0  0  0  0  0  0
    9.8333    4.0900    0.0000 C   0  0  0  0  0  0  0  0  0  0  0  0
   10.6973    3.5866    0.0000 C   0  0  0  0  0  0  0  0  0  0  0  0
  1  2  1  0
  2 30  2  0
  2  3  1  0
  3  4  2  0
  4  5  1  0
  5 29  2  0
  5  6  1  0
  6  7  1  0
  7 25  1  0
  7  8  1  0
  8  9  1  0
  9 10  1  0
 10 11  1  0
 11 12  1  0
 12 13  1  0
 13 14  1  0
 14 23  1  0
 14 15  1  0
 15 16  2  0
 15 17  1  0
 17 18  1  0
 18 23  2  0
 18 19  1  0
 19 20  2  0
 20 21  1  0
 21 22  2  0
 22 23  1  0
 10 24  1  0
 24 25  1  0
  6 26  1  0
 26 27  2  0
 26 28  1  0
 28 29  1  0
 29 30  1  0
M  END
>  <SMILES>  (772) 
O=c1[nH]c2ccccc2n1CCCN1CCC(n2c(=O)[nH]c3cc(Cl)ccc32)CC1

>  <CollectionName>  (772) 
chembl

>  <LOG PLASMA PROTEIN BINDING (RAT) (% unbound)>  (772) 
0.838849090737

>  <Internal ID>  (772) 


>  <Source>  (772) 
AstraZeneca

$$$$
CHEMBL556680
     RDKit          2D

 31 36  0  0  1  0  0  0  0  0999 V2000
    2.6038   -1.4974    0.0000 O   0  0  0  0  0  0  0  0  0  0  0  0
    1.7383   -1.9984    0.0000 C   0  0  0  0  0  0  0  0  0  0  0  0
    1.7394   -2.9984    0.0000 C   0  0  0  0  0  0  0  0  0  0  0  0
    2.6060   -3.4974    0.0000 C   0  0  0  0  0  0  0  0  0  0  0  0
    2.4448   -4.4944    0.0000 C   0  0  0  0  0  0  0  0  0  0  0  0
    3.3764   -4.9925    0.0000 C   0  0  0  0  0  0  0  0  0  0  0  0
    3.7670   -6.1676    0.0000 C   0  0  0  0  0  0  0  0  0  0  0  0
    4.0119   -5.0915    0.0000 C   0  0  0  0  0  0  0  0  0  0  0  0
    4.8324   -4.4051    0.0000 C   0  0  0  0  0  0  0  0  0  0  0  0
    4.3796   -3.3434    0.0000 C   0  0  0  0  0  0  0  0  0  0  0  0
    4.1244   -4.3288    0.0000 C   0  0  0  0  0  0  0  0  0  0  0  0
    3.4321   -2.8211    0.0000 C   0  0  0  0  0  0  0  0  0  0  0  0
    3.0199   -4.5580    0.0000 C   0  0  0  0  0  0  0  0  0  0  0  0
    0.8718   -1.4993    0.0000 N   0  0  0  0  0  0  0  0  0  0  0  0
    0.8707   -0.4993    0.0000 C   0  0  0  0  0  0  0  0  0  0  0  0
    0.0000    0.0000    0.0000 C   0  0  0  0  0  0  0  0  0  0  0  0
    0.0000    1.0089    0.0000 C   0  0  0  0  0  0  0  0  0  0  0  0
    0.8707    1.5185    0.0000 C   0  0  0  0  0  0  0  0  0  0  0  0
    1.7414    1.0089    0.0000 C   0  0  0  0  0  0  0  0  0  0  0  0
    2.6125    1.5125    0.0000 C   0  0  0  0  0  0  0  0  0  0  0  0
    2.6154    2.5125    0.0000 O   0  0  0  0  0  0  0  0  0  0  0  0
    3.4848    1.0014    0.0000 N   0  0  0  0  0  0  0  0  0  0  0  0
    4.3535    1.4968    0.0000 C   0  0  0  0  0  0  0  0  0  0  0  0
    5.2168    0.9922    0.0000 C   0  0  0  0  0  0  0  0  0  0  0  0
    6.1344    1.3938    0.0000 C   0  0  0  0  0  0  0  0  0  0  0  0
    6.8017    0.6469    0.0000 C   0  0  0  0  0  0  0  0  0  0  0  0
    6.2960   -0.2158    0.0000 C   0  0  0  0  0  0  0  0  0  0  0  0
    5.3175   -0.0074    0.0000 N   0  0  0  0  0  0  0  0  0  0  0  0
    3.4805   -0.0073    0.0000 C   0  0  0  0  0  0  0  0  0  0  0  0
    2.6039   -0.5053    0.0000 C   0  0  0  0  0  0  0  0  0  0  0  0
    1.7371    0.0000    0.0000 C   0  0  0  0  0  0  0  0  0  0  0  0
  1  2  2  0
  2  3  1  0
  3  4  1  0
  4 12  1  0
  4 13  1  0
  4  5  1  0
  5  6  1  0
  6 11  1  0
  6  7  1  0
  7  8  1  0
  8  9  1  0
  9 10  1  0
 10 11  1  0
 10 12  1  0
  8 13  1  0
  2 14  1  0
 14 15  1  0
 15 31  1  0
 15 16  2  0
 16 17  1  0
 17 18  2  0
 18 19  1  0
 19 31  2  0
 19 20  1  0
 20 21  2  0
 20 22  1  0
 22 23  1  0
 24 23  1  1
 24 28  1  0
 24 25  1  0
 25 26  1  0
 26 27  1  0
 27 28  1  0
 22 29  1  0
 29 30  2  0
 30 31  1  0
M  END
>  <SMILES>  (773) 
O=C(CC12CC3CC(CC(C3)C1)C2)Nc1cccc2c(=O)n(C[C@H]3CCCN3)ccc12

>  <CollectionName>  (773) 
chembl

>  <LOG PLASMA PROTEIN BINDING (RAT) (% unbound)>  (773) 
1.17897694729

>  <Internal ID>  (773) 


>  <Source>  (773) 
AstraZeneca

$$$$
CHEMBL1389471
     RDKit          2D

 31 34  0  0  0  0  0  0  0  0999 V2000
    0.8707    2.5185    0.0000 C   0  0  0  0  0  0  0  0  0  0  0  0
    0.8707    1.5185    0.0000 C   0  0  0  0  0  0  0  0  0  0  0  0
    0.0000    1.0089    0.0000 C   0  0  0  0  0  0  0  0  0  0  0  0
    0.0000    0.0000    0.0000 C   0  0  0  0  0  0  0  0  0  0  0  0
    0.8707   -0.4993    0.0000 C   0  0  0  0  0  0  0  0  0  0  0  0
    1.7371    0.0000    0.0000 C   0  0  0  0  0  0  0  0  0  0  0  0
    2.6039   -0.5053    0.0000 C   0  0  0  0  0  0  0  0  0  0  0  0
    3.4805   -0.0073    0.0000 C   0  0  0  0  0  0  0  0  0  0  0  0
    4.3437   -0.5122    0.0000 C   0  0  0  0  0  0  0  0  0  0  0  0
    4.3381   -1.5121    0.0000 N   0  0  0  0  0  0  0  0  0  0  0  0
    5.2013   -2.0170    0.0000 C   0  0  0  0  0  0  0  0  0  0  0  0
    6.0701   -1.5219    0.0000 C   0  0  0  0  0  0  0  0  0  0  0  0
    6.1817   -0.5234    0.0000 O   0  0  0  0  0  0  0  0  0  0  0  0
    7.1624   -0.3258    0.0000 C   0  0  0  0  0  0  0  0  0  0  0  0
    7.6586   -1.1940    0.0000 C   0  0  0  0  0  0  0  0  0  0  0  0
    6.9833   -1.9335    0.0000 C   0  0  0  0  0  0  0  0  0  0  0  0
    3.4693   -2.0073    0.0000 C   0  0  0  0  0  0  0  0  0  0  0  0
    2.6061   -1.5024    0.0000 O   0  0  0  0  0  0  0  0  0  0  0  0
    3.4637   -3.0073    0.0000 N   0  0  0  0  0  0  0  0  0  0  0  0
    2.5948   -3.5024    0.0000 C   0  0  0  0  0  0  0  0  0  0  0  0
    1.7287   -2.9923    0.0000 C   0  0  0  0  0  0  0  0  0  0  0  0
    0.8598   -3.4875    0.0000 C   0  0  0  0  0  0  0  0  0  0  0  0
    0.8483   -4.4874    0.0000 C   0  0  0  0  0  0  0  0  0  0  0  0
    1.7145   -4.9975    0.0000 C   0  0  0  0  0  0  0  0  0  0  0  0
    2.5922   -4.5075    0.0000 C   0  0  0  0  0  0  0  0  0  0  0  0
    1.7030   -5.9974    0.0000 C   0  0  0  0  0  0  0  0  0  0  0  0
    1.6915   -6.9973    0.0000 N   0  0  0  0  0  0  0  0  0  0  0  0
    3.4848    1.0014    0.0000 C   0  0  0  0  0  0  0  0  0  0  0  0
    4.3535    1.4968    0.0000 Cl  0  0  0  0  0  0  0  0  0  0  0  0
    2.6125    1.5125    0.0000 N   0  0  0  0  0  0  0  0  0  0  0  0
    1.7414    1.0089    0.0000 C   0  0  0  0  0  0  0  0  0  0  0  0
  1  2  1  0
  2 31  2  0
  2  3  1  0
  3  4  2  0
  4  5  1  0
  5  6  2  0
  6 31  1  0
  6  7  1  0
  7  8  2  0
  8  9  1  0
  9 10  1  0
 10 11  1  0
 11 12  1  0
 12 16  2  0
 12 13  1  0
 13 14  1  0
 14 15  2  0
 15 16  1  0
 10 17  1  0
 17 18  2  0
 17 19  1  0
 19 20  1  0
 20 25  1  0
 20 21  2  0
 21 22  1  0
 22 23  2  0
 23 24  1  0
 24 25  2  0
 24 26  1  0
 26 27  3  0
  8 28  1  0
 28 29  1  0
 28 30  2  0
 30 31  1  0
M  END
>  <SMILES>  (774) 
Cc1cccc2cc(CN(Cc3ccco3)C(=O)Nc3cccc(C#N)c3)c(Cl)nc12

>  <CollectionName>  (774) 
chembl

>  <LOG PLASMA PROTEIN BINDING (RAT) (% unbound)>  (774) 
-1.04575749056

>  <Internal ID>  (774) 


>  <Source>  (774) 
AstraZeneca

$$$$
CHEMBL1916086
     RDKit          2D

 32 35  0  0  0  0  0  0  0  0999 V2000
   -4.6917    3.5573    0.0000 C   0  0  0  0  0  0  0  0  0  0  0  0
   -4.0190    2.8174    0.0000 C   0  0  0  0  0  0  0  0  0  0  0  0
   -4.3220    1.8644    0.0000 C   0  0  0  0  0  0  0  0  0  0  0  0
   -3.6525    1.1216    0.0000 C   0  0  0  0  0  0  0  0  0  0  0  0
   -2.6700    1.3339    0.0000 C   0  0  0  0  0  0  0  0  0  0  0  0
   -2.3570    2.2891    0.0000 C   0  0  0  0  0  0  0  0  0  0  0  0
   -3.0365    3.0298    0.0000 C   0  0  0  0  0  0  0  0  0  0  0  0
   -2.0005    0.5910    0.0000 S   0  0  0  0  0  0  0  0  0  0  0  0
   -1.3311   -0.1518    0.0000 O   0  0  0  0  0  0  0  0  0  0  0  0
   -2.7434   -0.0784    0.0000 O   0  0  0  0  0  0  0  0  0  0  0  0
   -1.2577    1.2605    0.0000 N   0  0  0  0  0  0  0  0  0  0  0  0
   -0.3065    0.9519    0.0000 C   0  0  0  0  0  0  0  0  0  0  0  0
    0.0000    0.0000    0.0000 C   0  0  0  0  0  0  0  0  0  0  0  0
    1.0015    0.0000    0.0000 C   0  0  0  0  0  0  0  0  0  0  0  0
    1.3133    0.9519    0.0000 N   0  0  0  0  0  0  0  0  0  0  0  0
    0.5008    1.5428    0.0000 N   0  0  0  0  0  0  0  0  0  0  0  0
    0.4993    2.5428    0.0000 C   0  0  0  0  0  0  0  0  0  0  0  0
   -0.3735    3.0415    0.0000 C   0  0  0  0  0  0  0  0  0  0  0  0
   -0.3751    4.0415    0.0000 C   0  0  0  0  0  0  0  0  0  0  0  0
    0.4873    4.5479    0.0000 C   0  0  0  0  0  0  0  0  0  0  0  0
    1.3600    4.0492    0.0000 C   0  0  0  0  0  0  0  0  0  0  0  0
    1.3705    3.0441    0.0000 C   0  0  0  0  0  0  0  0  0  0  0  0
   -1.0305   -1.4144    0.0000 C   0  0  0  0  0  0  0  0  0  0  0  0
   -0.6250   -2.3285    0.0000 O   0  0  0  0  0  0  0  0  0  0  0  0
   -2.0249   -1.3086    0.0000 N   0  0  0  0  0  0  0  0  0  0  0  0
   -2.6137   -2.1168    0.0000 C   0  0  0  0  0  0  0  0  0  0  0  0
   -2.2082   -3.0309    0.0000 C   0  0  0  0  0  0  0  0  0  0  0  0
   -2.8025   -3.8416    0.0000 C   0  0  0  0  0  0  0  0  0  0  0  0
   -2.3970   -4.7557    0.0000 C   0  0  0  0  0  0  0  0  0  0  0  0
   -1.4033   -4.8674    0.0000 C   0  0  0  0  0  0  0  0  0  0  0  0
   -0.8090   -4.0567    0.0000 C   0  0  0  0  0  0  0  0  0  0  0  0
   -1.2084   -3.1343    0.0000 C   0  0  0  0  0  0  0  0  0  0  0  0
  1  2  1  0
  2  7  2  0
  2  3  1  0
  3  4  2  0
  4  5  1  0
  5  6  2  0
  6  7  1  0
  5  8  1  0
  8  9  2  0
  8 10  2  0
  8 11  1  0
 11 12  1  0
 12 16  1  0
 12 13  2  0
 13 14  1  0
 14 15  2  0
 15 16  1  0
 16 17  1  0
 17 22  1  0
 17 18  2  0
 18 19  1  0
 19 20  2  0
 20 21  1  0
 21 22  2  0
 13 23  1  0
 23 24  2  0
 23 25  1  0
 25 26  1  0
 26 27  1  0
 27 32  1  0
 27 28  2  0
 28 29  1  0
 29 30  2  0
 30 31  1  0
 31 32  2  0
M  END
>  <SMILES>  (775) 
Cc1ccc(S(=O)(=O)Nc2c(C(=O)NCc3ccccc3)cnn2-c2ccccc2)cc1

>  <CollectionName>  (775) 
chembl

>  <LOG PLASMA PROTEIN BINDING (RAT) (% unbound)>  (775) 
-0.180456064458

>  <Internal ID>  (775) 


>  <Source>  (775) 
AstraZeneca

$$$$
CHEMBL1916271
     RDKit          2D

 37 41  0  0  0  0  0  0  0  0999 V2000
    0.7749   -3.3484    0.0000 C   0  0  0  0  0  0  0  0  0  0  0  0
    0.3694   -2.4343    0.0000 C   0  0  0  0  0  0  0  0  0  0  0  0
   -0.6250   -2.3285    0.0000 N   0  0  0  0  0  0  0  0  0  0  0  0
   -1.2138   -3.1367    0.0000 C   0  0  0  0  0  0  0  0  0  0  0  0
   -0.8035   -4.0544    0.0000 C   0  0  0  0  0  0  0  0  0  0  0  0
   -1.3923   -4.8627    0.0000 C   0  0  0  0  0  0  0  0  0  0  0  0
   -2.3873   -4.7626    0.0000 C   0  0  0  0  0  0  0  0  0  0  0  0
   -2.7977   -3.8450    0.0000 C   0  0  0  0  0  0  0  0  0  0  0  0
   -2.2130   -3.0274    0.0000 C   0  0  0  0  0  0  0  0  0  0  0  0
   -1.0305   -1.4144    0.0000 C   0  0  0  0  0  0  0  0  0  0  0  0
   -2.0249   -1.3086    0.0000 O   0  0  0  0  0  0  0  0  0  0  0  0
    0.0000    0.0000    0.0000 C   0  0  0  0  0  0  0  0  0  0  0  0
    1.0015    0.0000    0.0000 C   0  0  0  0  0  0  0  0  0  0  0  0
    1.3133    0.9519    0.0000 N   0  0  0  0  0  0  0  0  0  0  0  0
    0.5008    1.5428    0.0000 N   0  0  0  0  0  0  0  0  0  0  0  0
   -0.3065    0.9519    0.0000 C   0  0  0  0  0  0  0  0  0  0  0  0
   -1.9711    1.4920    0.0000 N   0  0  0  0  0  0  0  0  0  0  0  0
   -2.7139    0.8225    0.0000 S   0  0  0  0  0  0  0  0  0  0  0  0
   -3.3834    1.5654    0.0000 O   0  0  0  0  0  0  0  0  0  0  0  0
   -2.0445    0.0796    0.0000 O   0  0  0  0  0  0  0  0  0  0  0  0
   -3.4568    0.1530    0.0000 C   0  0  0  0  0  0  0  0  0  0  0  0
   -3.2445   -0.8295    0.0000 C   0  0  0  0  0  0  0  0  0  0  0  0
   -3.9873   -1.4990    0.0000 C   0  0  0  0  0  0  0  0  0  0  0  0
   -4.9403   -1.1959    0.0000 C   0  0  0  0  0  0  0  0  0  0  0  0
   -5.1526   -0.2134    0.0000 C   0  0  0  0  0  0  0  0  0  0  0  0
   -4.4120    0.4661    0.0000 C   0  0  0  0  0  0  0  0  0  0  0  0
   -5.6802   -1.8687    0.0000 C   0  0  0  0  0  0  0  0  0  0  0  0
   -5.5678   -2.8628    0.0000 O   0  0  0  0  0  0  0  0  0  0  0  0
   -6.4839   -3.2750    0.0000 C   0  0  0  0  0  0  0  0  0  0  0  0
   -7.1557   -2.5320    0.0000 N   0  0  0  0  0  0  0  0  0  0  0  0
   -6.6588   -1.6625    0.0000 C   0  0  0  0  0  0  0  0  0  0  0  0
    0.4993    2.5428    0.0000 C   0  0  0  0  0  0  0  0  0  0  0  0
   -0.3735    3.0415    0.0000 C   0  0  0  0  0  0  0  0  0  0  0  0
   -0.3751    4.0415    0.0000 C   0  0  0  0  0  0  0  0  0  0  0  0
    0.4873    4.5479    0.0000 C   0  0  0  0  0  0  0  0  0  0  0  0
    1.3600    4.0492    0.0000 C   0  0  0  0  0  0  0  0  0  0  0  0
    1.3705    3.0441    0.0000 C   0  0  0  0  0  0  0  0  0  0  0  0
  1  2  1  0
  2  3  1  0
  3  4  1  0
  4  9  1  0
  4  5  1  0
  5  6  1  0
  6  7  1  0
  7  8  1  0
  8  9  1  0
  3 10  1  0
 10 11  2  0
 10 12  1  0
 12 16  2  0
 12 13  1  0
 13 14  2  0
 14 15  1  0
 15 16  1  0
 16 17  1  0
 17 18  1  0
 18 19  2  0
 18 20  2  0
 18 21  1  0
 21 26  1  0
 21 22  2  0
 22 23  1  0
 23 24  2  0
 24 25  1  0
 25 26  2  0
 24 27  1  0
 27 31  2  0
 27 28  1  0
 28 29  1  0
 29 30  2  0
 30 31  1  0
 15 32  1  0
 32 37  1  0
 32 33  2  0
 33 34  1  0
 34 35  2  0
 35 36  1  0
 36 37  2  0
M  END
>  <SMILES>  (776) 
CCN(C(=O)c1cnn(-c2ccccc2)c1NS(=O)(=O)c1ccc(-c2cnco2)cc1)C1CCCCC1

>  <CollectionName>  (776) 
chembl

>  <LOG PLASMA PROTEIN BINDING (RAT) (% unbound)>  (776) 
-0.244125144328

>  <Internal ID>  (776) 


>  <Source>  (776) 
AstraZeneca

$$$$
CHEMBL1916284
     RDKit          2D

 35 37  0  0  1  0  0  0  0  0999 V2000
   -2.2082   -3.0309    0.0000 C   0  0  0  0  0  0  0  0  0  0  0  0
   -2.6137   -2.1168    0.0000 C   0  0  0  0  0  0  0  0  0  0  0  0
   -2.0249   -1.3086    0.0000 N   0  0  0  0  0  0  0  0  0  0  0  0
   -1.0305   -1.4144    0.0000 C   0  0  0  0  0  0  0  0  0  0  0  0
   -0.6250   -2.3285    0.0000 O   0  0  0  0  0  0  0  0  0  0  0  0
    0.0000    0.0000    0.0000 C   0  0  0  0  0  0  0  0  0  0  0  0
    1.0015   -0.0000    0.0000 C   0  0  0  0  0  0  0  0  0  0  0  0
    2.0284   -1.4170    0.0000 N   0  0  0  0  0  0  0  0  0  0  0  0
    1.6206   -2.3301    0.0000 S   0  0  0  0  0  0  0  0  0  0  0  0
    2.5337   -2.7379    0.0000 O   0  0  0  0  0  0  0  0  0  0  0  0
    0.7076   -1.9222    0.0000 O   0  0  0  0  0  0  0  0  0  0  0  0
    1.2128   -3.2431    0.0000 C   0  0  0  0  0  0  0  0  0  0  0  0
    0.2127   -3.3441    0.0000 C   0  0  0  0  0  0  0  0  0  0  0  0
   -0.1952   -4.2571    0.0000 C   0  0  0  0  0  0  0  0  0  0  0  0
    0.3869   -5.0703    0.0000 C   0  0  0  0  0  0  0  0  0  0  0  0
   -0.0250   -5.9815    0.0000 C   0  0  0  0  0  0  0  0  0  0  0  0
    1.3870   -4.9694    0.0000 C   0  0  0  0  0  0  0  0  0  0  0  0
    1.8050   -4.0553    0.0000 C   0  0  0  0  0  0  0  0  0  0  0  0
    1.3133    0.9519    0.0000 N   0  0  0  0  0  0  0  0  0  0  0  0
    0.5008    1.5428    0.0000 N   0  0  0  0  0  0  0  0  0  0  0  0
   -0.3065    0.9519    0.0000 C   0  0  0  0  0  0  0  0  0  0  0  0
   -1.2577    1.2605    0.0000 C   0  0  0  0  0  0  0  0  0  0  0  0
   -1.5663    0.3093    0.0000 F   0  0  0  0  0  0  0  0  0  0  0  0
   -0.9491    2.2117    0.0000 F   0  0  0  0  0  0  0  0  0  0  0  0
   -2.2089    1.5691    0.0000 F   0  0  0  0  0  0  0  0  0  0  0  0
    2.2648    1.2596    0.0000 C   0  0  0  0  0  0  0  0  0  0  0  0
    2.4723    2.2431    0.0000 C   0  0  0  0  0  0  0  0  0  0  0  0
    3.4238    2.5508    0.0000 C   0  0  0  0  0  0  0  0  0  0  0  0
    4.1699    1.8850    0.0000 C   0  0  0  0  0  0  0  0  0  0  0  0
    3.9624    0.9014    0.0000 C   0  0  0  0  0  0  0  0  0  0  0  0
    3.0088    0.5837    0.0000 C   0  0  0  0  0  0  0  0  0  0  0  0
   -3.6081   -2.0110    0.0000 C   0  0  0  0  0  0  0  0  0  0  0  0
   -4.6025   -1.9051    0.0000 C   0  0  0  0  0  0  0  0  0  0  0  0
   -3.5023   -1.0166    0.0000 C   0  0  0  0  0  0  0  0  0  0  0  0
   -3.7140   -3.0053    0.0000 C   0  0  0  0  0  0  0  0  0  0  0  0
  2  1  1  1
  2  3  1  0
  3  4  1  0
  4  5  2  0
  4  6  1  0
  6 21  1  0
  6  7  2  0
  7  8  1  0
  8  9  1  0
  9 10  2  0
  9 11  2  0
  9 12  1  0
 12 18  1  0
 12 13  2  0
 13 14  1  0
 14 15  2  0
 15 16  1  0
 15 17  1  0
 17 18  2  0
  7 19  1  0
 19 20  1  0
 20 21  2  0
 21 22  1  0
 22 23  1  0
 22 24  1  0
 22 25  1  0
 19 26  1  0
 26 31  1  0
 26 27  2  0
 27 28  1  0
 28 29  2  0
 29 30  1  0
 30 31  2  0
  2 32  1  0
 32 33  1  0
 32 34  1  0
 32 35  1  0
M  END
>  <SMILES>  (777) 
Cc1ccc(S(=O)(=O)Nc2c(C(=O)N[C@@H](C)C(C)(C)C)c(C(F)(F)F)nn2-c2ccccc2)cc1

>  <CollectionName>  (777) 
chembl

>  <LOG PLASMA PROTEIN BINDING (RAT) (% unbound)>  (777) 
-0.0132282657338

>  <Internal ID>  (777) 


>  <Source>  (777) 
AstraZeneca

$$$$
CHEMBL1917433
     RDKit          2D

 27 29  0  0  0  0  0  0  0  0999 V2000
    4.2858    0.5024    0.0000 C   0  0  0  0  0  0  0  0  0  0  0  0
    3.2858    0.5023    0.0000 C   0  0  0  0  0  0  0  0  0  0  0  0
    2.6938   -0.3125    0.0000 C   0  0  0  0  0  0  0  0  0  0  0  0
    3.0028   -1.2636    0.0000 S   0  0  0  0  0  0  0  0  0  0  0  0
    3.9809   -1.4715    0.0000 C   0  0  0  0  0  0  0  0  0  0  0  0
    4.6512   -0.7294    0.0000 C   0  0  0  0  0  0  0  0  0  0  0  0
    5.6302   -0.9331    0.0000 C   0  0  0  0  0  0  0  0  0  0  0  0
    5.9422   -1.8886    0.0000 C   0  0  0  0  0  0  0  0  0  0  0  0
    6.9212   -2.0923    0.0000 Cl  0  0  0  0  0  0  0  0  0  0  0  0
    5.2751   -2.6405    0.0000 C   0  0  0  0  0  0  0  0  0  0  0  0
    4.2929   -2.4271    0.0000 C   0  0  0  0  0  0  0  0  0  0  0  0
    1.7360   -0.0012    0.0000 C   0  0  0  0  0  0  0  0  0  0  0  0
    0.8680   -0.4978    0.0000 C   0  0  0  0  0  0  0  0  0  0  0  0
    0.8675   -1.4978    0.0000 N   0  0  0  0  0  0  0  0  0  0  0  0
    0.0012   -1.9973    0.0000 S   0  0  0  0  0  0  0  0  0  0  0  0
    0.5007   -2.8636    0.0000 O   0  0  0  0  0  0  0  0  0  0  0  0
   -0.4984   -1.1311    0.0000 O   0  0  0  0  0  0  0  0  0  0  0  0
   -0.8651   -2.4969    0.0000 C   0  0  0  0  0  0  0  0  0  0  0  0
    0.0000    0.0000    0.0000 C   0  0  0  0  0  0  0  0  0  0  0  0
    0.0000    1.0058    0.0000 C   0  0  0  0  0  0  0  0  0  0  0  0
    0.8680    1.5138    0.0000 C   0  0  0  0  0  0  0  0  0  0  0  0
    1.7360    1.0058    0.0000 C   0  0  0  0  0  0  0  0  0  0  0  0
    2.6938    1.3169    0.0000 N   0  0  0  0  0  0  0  0  0  0  0  0
    3.0028    2.2680    0.0000 C   0  0  0  0  0  0  0  0  0  0  0  0
    3.9810    2.4759    0.0000 C   0  0  0  0  0  0  0  0  0  0  0  0
    4.6501    1.7327    0.0000 O   0  0  0  0  0  0  0  0  0  0  0  0
    4.2900    3.4269    0.0000 O   0  0  0  0  0  0  0  0  0  0  0  0
  1  2  1  0
  2 23  1  0
  2  3  2  0
  3  4  1  0
  4  5  1  0
  5 11  1  0
  5  6  2  0
  6  7  1  0
  7  8  2  0
  8  9  1  0
  8 10  1  0
 10 11  2  0
  3 12  1  0
 12 22  2  0
 12 13  1  0
 13 14  1  0
 14 15  1  0
 15 16  2  0
 15 17  2  0
 15 18  1  0
 13 19  2  0
 19 20  1  0
 20 21  2  0
 21 22  1  0
 22 23  1  0
 23 24  1  0
 24 25  1  0
 25 26  2  0
 25 27  1  0
M  END
>  <SMILES>  (778) 
Cc1c(Sc2ccc(Cl)cc2)c2c(NS(C)(=O)=O)cccc2n1CC(=O)O

>  <CollectionName>  (778) 
chembl

>  <LOG PLASMA PROTEIN BINDING (RAT) (% unbound)>  (778) 
-0.508638306166

>  <Internal ID>  (778) 


>  <Source>  (778) 
AstraZeneca

$$$$
CHEMBL1929039
     RDKit          2D

 28 31  0  0  0  0  0  0  0  0999 V2000
   -3.6868    0.5235    0.0000 C   0  0  0  0  0  0  0  0  0  0  0  0
   -2.9455    1.1946    0.0000 C   0  0  0  0  0  0  0  0  0  0  0  0
   -3.1601    2.1766    0.0000 C   0  0  0  0  0  0  0  0  0  0  0  0
   -2.4090    2.8446    0.0000 C   0  0  0  0  0  0  0  0  0  0  0  0
   -2.6138    3.8234    0.0000 F   0  0  0  0  0  0  0  0  0  0  0  0
   -1.4531    2.5338    0.0000 C   0  0  0  0  0  0  0  0  0  0  0  0
   -1.2482    1.5549    0.0000 C   0  0  0  0  0  0  0  0  0  0  0  0
   -1.9896    0.8838    0.0000 C   0  0  0  0  0  0  0  0  0  0  0  0
   -1.7805   -0.0941    0.0000 N   0  0  0  0  0  0  0  0  0  0  0  0
   -2.4511   -0.8422    0.0000 N   0  0  0  0  0  0  0  0  0  0  0  0
   -1.9455   -1.7055    0.0000 C   0  0  0  0  0  0  0  0  0  0  0  0
   -0.9673   -1.4976    0.0000 C   0  0  0  0  0  0  0  0  0  0  0  0
   -0.8653   -0.5013    0.0000 C   0  0  0  0  0  0  0  0  0  0  0  0
    0.0000    0.0000    0.0000 C   0  0  0  0  0  0  0  0  0  0  0  0
    0.0000    1.0056    0.0000 C   0  0  0  0  0  0  0  0  0  0  0  0
    0.8679    1.5135    0.0000 C   0  0  0  0  0  0  0  0  0  0  0  0
    1.7358    1.0056    0.0000 C   0  0  0  0  0  0  0  0  0  0  0  0
    2.6012    1.5123    0.0000 O   0  0  0  0  0  0  0  0  0  0  0  0
    3.4735    1.0079    0.0000 C   0  0  0  0  0  0  0  0  0  0  0  0
    3.4748    0.0023    0.0000 C   0  0  0  0  0  0  0  0  0  0  0  0
    4.3408   -0.4978    0.0000 O   0  0  0  0  0  0  0  0  0  0  0  0
    2.6038   -0.4989    0.0000 N   0  0  0  0  0  0  0  0  0  0  0  0
    1.7371   -0.0000    0.0000 C   0  0  0  0  0  0  0  0  0  0  0  0
    0.8679   -0.4977    0.0000 C   0  0  0  0  0  0  0  0  0  0  0  0
   -2.3494   -2.6203    0.0000 C   0  0  0  0  0  0  0  0  0  0  0  0
   -1.4346   -3.0242    0.0000 F   0  0  0  0  0  0  0  0  0  0  0  0
   -3.2642   -2.2164    0.0000 F   0  0  0  0  0  0  0  0  0  0  0  0
   -2.7533   -3.5351    0.0000 F   0  0  0  0  0  0  0  0  0  0  0  0
  1  2  1  0
  2  8  2  0
  2  3  1  0
  3  4  2  0
  4  5  1  0
  4  6  1  0
  6  7  2  0
  7  8  1  0
  8  9  1  0
  9 13  1  0
  9 10  1  0
 10 11  2  0
 11 12  1  0
 12 13  2  0
 13 14  1  0
 14 24  1  0
 14 15  2  0
 15 16  1  0
 16 17  2  0
 17 23  1  0
 17 18  1  0
 18 19  1  0
 19 20  1  0
 20 21  2  0
 20 22  1  0
 22 23  1  0
 23 24  2  0
 11 25  1  0
 25 26  1  0
 25 27  1  0
 25 28  1  0
M  END
>  <SMILES>  (779) 
Cc1cc(F)ccc1-n1nc(C(F)(F)F)cc1-c1ccc2c(c1)NC(=O)CO2

>  <CollectionName>  (779) 
chembl

>  <LOG PLASMA PROTEIN BINDING (RAT) (% unbound)>  (779) 
1.27852496474

>  <Internal ID>  (779) 


>  <Source>  (779) 
AstraZeneca

$$$$
CHEMBL1934269
     RDKit          2D

 31 32  0  0  1  0  0  0  0  0999 V2000
   -1.7666   -2.4247    0.0000 C   0  0  0  0  0  0  0  0  0  0  0  0
   -2.1721   -1.5106    0.0000 C   0  0  0  0  0  0  0  0  0  0  0  0
   -1.5832   -0.7024    0.0000 N   0  0  0  0  0  0  0  0  0  0  0  0
   -0.5889   -0.8082    0.0000 C   0  0  0  0  0  0  0  0  0  0  0  0
   -0.1833   -1.7223    0.0000 O   0  0  0  0  0  0  0  0  0  0  0  0
    0.0000    0.0000    0.0000 C   0  0  0  0  0  0  0  0  0  0  0  0
   -0.3065    0.9519    0.0000 C   0  0  0  0  0  0  0  0  0  0  0  0
   -1.2577    1.2605    0.0000 C   0  0  0  0  0  0  0  0  0  0  0  0
    0.5008    1.5428    0.0000 N   0  0  0  0  0  0  0  0  0  0  0  0
    1.3133    0.9519    0.0000 N   0  0  0  0  0  0  0  0  0  0  0  0
    2.2648    1.2596    0.0000 C   0  0  0  0  0  0  0  0  0  0  0  0
    2.4741    2.2374    0.0000 C   0  0  0  0  0  0  0  0  0  0  0  0
    3.4520    2.0281    0.0000 F   0  0  0  0  0  0  0  0  0  0  0  0
    1.4963    2.4467    0.0000 F   0  0  0  0  0  0  0  0  0  0  0  0
    2.6834    3.2153    0.0000 F   0  0  0  0  0  0  0  0  0  0  0  0
    1.0015   -0.0000    0.0000 C   0  0  0  0  0  0  0  0  0  0  0  0
    1.5883   -0.8097    0.0000 N   0  0  0  0  0  0  0  0  0  0  0  0
    2.5830   -0.7064    0.0000 S   0  0  0  0  0  0  0  0  0  0  0  0
    2.6863   -1.7010    0.0000 O   0  0  0  0  0  0  0  0  0  0  0  0
    2.4796    0.2883    0.0000 O   0  0  0  0  0  0  0  0  0  0  0  0
    3.5776   -0.6030    0.0000 C   0  0  0  0  0  0  0  0  0  0  0  0
    3.9848    0.3160    0.0000 C   0  0  0  0  0  0  0  0  0  0  0  0
    4.9795    0.4194    0.0000 C   0  0  0  0  0  0  0  0  0  0  0  0
    5.5711   -0.3869    0.0000 C   0  0  0  0  0  0  0  0  0  0  0  0
    6.5653   -0.2792    0.0000 C   0  0  0  0  0  0  0  0  0  0  0  0
    5.1639   -1.3059    0.0000 C   0  0  0  0  0  0  0  0  0  0  0  0
    4.1651   -1.4186    0.0000 C   0  0  0  0  0  0  0  0  0  0  0  0
   -3.1665   -1.4048    0.0000 C   0  0  0  0  0  0  0  0  0  0  0  0
   -4.1609   -1.2989    0.0000 C   0  0  0  0  0  0  0  0  0  0  0  0
   -3.0606   -0.4104    0.0000 C   0  0  0  0  0  0  0  0  0  0  0  0
   -3.2723   -2.3992    0.0000 C   0  0  0  0  0  0  0  0  0  0  0  0
  2  1  1  1
  2  3  1  0
  3  4  1  0
  4  5  2  0
  4  6  1  0
  6 16  2  0
  6  7  1  0
  7  8  1  0
  7  9  2  0
  9 10  1  0
 10 11  1  0
 11 12  1  0
 12 13  1  0
 12 14  1  0
 12 15  1  0
 10 16  1  0
 16 17  1  0
 17 18  1  0
 18 19  2  0
 18 20  2  0
 18 21  1  0
 21 27  1  0
 21 22  2  0
 22 23  1  0
 23 24  2  0
 24 25  1  0
 24 26  1  0
 26 27  2  0
  2 28  1  0
 28 29  1  0
 28 30  1  0
 28 31  1  0
M  END
>  <SMILES>  (780) 
Cc1ccc(S(=O)(=O)Nc2c(C(=O)N[C@@H](C)C(C)(C)C)c(C)nn2CC(F)(F)F)cc1

>  <CollectionName>  (780) 
chembl

>  <LOG PLASMA PROTEIN BINDING (RAT) (% unbound)>  (780) 
0.43775056282

>  <Internal ID>  (780) 


>  <Source>  (780) 
AstraZeneca

$$$$
CHEMBL1934418
     RDKit          2D

 32 34  0  0  1  0  0  0  0  0999 V2000
   -2.2082   -3.0309    0.0000 C   0  0  0  0  0  0  0  0  0  0  0  0
   -2.6137   -2.1168    0.0000 C   0  0  0  0  0  0  0  0  0  0  0  0
   -2.0249   -1.3086    0.0000 N   0  0  0  0  0  0  0  0  0  0  0  0
   -1.0305   -1.4144    0.0000 C   0  0  0  0  0  0  0  0  0  0  0  0
   -0.6250   -2.3285    0.0000 O   0  0  0  0  0  0  0  0  0  0  0  0
    0.0000    0.0000    0.0000 C   0  0  0  0  0  0  0  0  0  0  0  0
   -0.3065    0.9519    0.0000 C   0  0  0  0  0  0  0  0  0  0  0  0
   -1.2577    1.2605    0.0000 C   0  0  0  0  0  0  0  0  0  0  0  0
    0.5008    1.5428    0.0000 N   0  0  0  0  0  0  0  0  0  0  0  0
    1.3133    0.9519    0.0000 N   0  0  0  0  0  0  0  0  0  0  0  0
    2.2648    1.2596    0.0000 C   0  0  0  0  0  0  0  0  0  0  0  0
    2.4713    2.2380    0.0000 C   0  0  0  0  0  0  0  0  0  0  0  0
    3.4277    2.5473    0.0000 C   0  0  0  0  0  0  0  0  0  0  0  0
    4.1777    1.8781    0.0000 S   0  0  0  0  0  0  0  0  0  0  0  0
    3.9615    0.8965    0.0000 C   0  0  0  0  0  0  0  0  0  0  0  0
    3.0051    0.5872    0.0000 C   0  0  0  0  0  0  0  0  0  0  0  0
    1.0015   -0.0000    0.0000 C   0  0  0  0  0  0  0  0  0  0  0  0
    2.0284   -1.4170    0.0000 N   0  0  0  0  0  0  0  0  0  0  0  0
    1.6206   -2.3301    0.0000 S   0  0  0  0  0  0  0  0  0  0  0  0
    2.5337   -2.7379    0.0000 O   0  0  0  0  0  0  0  0  0  0  0  0
    0.7076   -1.9222    0.0000 O   0  0  0  0  0  0  0  0  0  0  0  0
    1.2128   -3.2431    0.0000 C   0  0  0  0  0  0  0  0  0  0  0  0
    0.2127   -3.3441    0.0000 C   0  0  0  0  0  0  0  0  0  0  0  0
   -0.1952   -4.2571    0.0000 C   0  0  0  0  0  0  0  0  0  0  0  0
    0.3869   -5.0703    0.0000 C   0  0  0  0  0  0  0  0  0  0  0  0
   -0.0250   -5.9815    0.0000 C   0  0  0  0  0  0  0  0  0  0  0  0
    1.3870   -4.9694    0.0000 C   0  0  0  0  0  0  0  0  0  0  0  0
    1.8050   -4.0553    0.0000 C   0  0  0  0  0  0  0  0  0  0  0  0
   -3.6081   -2.0110    0.0000 C   0  0  0  0  0  0  0  0  0  0  0  0
   -4.6025   -1.9051    0.0000 C   0  0  0  0  0  0  0  0  0  0  0  0
   -3.5023   -1.0166    0.0000 C   0  0  0  0  0  0  0  0  0  0  0  0
   -3.7140   -3.0053    0.0000 C   0  0  0  0  0  0  0  0  0  0  0  0
  2  1  1  1
  2  3  1  0
  3  4  1  0
  4  5  2  0
  4  6  1  0
  6 17  2  0
  6  7  1  0
  7  8  1  0
  7  9  2  0
  9 10  1  0
 10 11  1  0
 11 16  1  0
 11 12  1  0
 12 13  1  0
 13 14  1  0
 14 15  1  0
 15 16  1  0
 10 17  1  0
 17 18  1  0
 18 19  1  0
 19 20  2  0
 19 21  2  0
 19 22  1  0
 22 28  1  0
 22 23  2  0
 23 24  1  0
 24 25  2  0
 25 26  1  0
 25 27  1  0
 27 28  2  0
  2 29  1  0
 29 30  1  0
 29 31  1  0
 29 32  1  0
M  END
>  <SMILES>  (781) 
Cc1ccc(S(=O)(=O)Nc2c(C(=O)N[C@@H](C)C(C)(C)C)c(C)nn2C2CCSCC2)cc1

>  <CollectionName>  (781) 
chembl

>  <LOG PLASMA PROTEIN BINDING (RAT) (% unbound)>  (781) 
0.820201459486

>  <Internal ID>  (781) 


>  <Source>  (781) 
AstraZeneca

$$$$
CHEMBL170614
     RDKit          2D

 11 12  0  0  0  0  0  0  0  0999 V2000
   -1.2577    1.2605    0.0000 C   0  0  0  0  0  0  0  0  0  0  0  0
   -1.4660    2.2386    0.0000 C   0  0  0  0  0  0  0  0  0  0  0  0
   -2.3816    2.6444    0.0000 C   0  0  0  0  0  0  0  0  0  0  0  0
   -2.2761    3.6389    0.0000 C   0  0  0  0  0  0  0  0  0  0  0  0
   -1.2986    3.8519    0.0000 S   0  0  0  0  0  0  0  0  0  0  0  0
   -0.7952    2.9824    0.0000 C   0  0  0  0  0  0  0  0  0  0  0  0
   -0.3065    0.9519    0.0000 C   0  0  0  0  0  0  0  0  0  0  0  0
    0.0000    0.0000    0.0000 C   0  0  0  0  0  0  0  0  0  0  0  0
    1.0015   -0.0000    0.0000 N   0  0  0  0  0  0  0  0  0  0  0  0
    1.3133    0.9519    0.0000 C   0  0  0  0  0  0  0  0  0  0  0  0
    0.5008    1.5428    0.0000 N   0  0  0  0  0  0  0  0  0  0  0  0
  1  2  1  0
  2  6  2  0
  2  3  1  0
  3  4  2  0
  4  5  1  0
  5  6  1  0
  1  7  1  0
  7 11  1  0
  7  8  2  0
  8  9  1  0
  9 10  1  0
 10 11  2  0
M  END
>  <SMILES>  (782) 
c1nc(Cc2ccsc2)c[nH]1

>  <CollectionName>  (782) 
chembl

>  <LOG PLASMA PROTEIN BINDING (RAT) (% unbound)>  (782) 
1.56890541498

>  <Internal ID>  (782) 


>  <Source>  (782) 
AstraZeneca

$$$$
CHEMBL655
     RDKit          2D

 23 26  0  0  0  0  0  0  0  0999 V2000
   -3.2401    1.3540    0.0000 C   0  0  0  0  0  0  0  0  0  0  0  0
   -3.5561    0.4052    0.0000 C   0  0  0  0  0  0  0  0  0  0  0  0
   -4.5134    0.1012    0.0000 N   0  0  0  0  0  0  0  0  0  0  0  0
   -4.5186   -0.9017    0.0000 C   0  0  0  0  0  0  0  0  0  0  0  0
   -3.5662   -1.2157    0.0000 C   0  0  0  0  0  0  0  0  0  0  0  0
   -3.3079   -2.1883    0.0000 C   0  0  0  0  0  0  0  0  0  0  0  0
   -2.3708   -2.6190    0.0000 N   0  0  0  0  0  0  0  0  0  0  0  0
   -1.5045   -2.1175    0.0000 C   0  0  0  0  0  0  0  0  0  0  0  0
   -0.6890   -2.6963    0.0000 C   0  0  0  0  0  0  0  0  0  0  0  0
    0.2206   -2.2808    0.0000 C   0  0  0  0  0  0  0  0  0  0  0  0
    1.0386   -2.8560    0.0000 C   0  0  0  0  0  0  0  0  0  0  0  0
    0.9461   -3.8569    0.0000 C   0  0  0  0  0  0  0  0  0  0  0  0
    0.0355   -4.2826    0.0000 C   0  0  0  0  0  0  0  0  0  0  0  0
   -0.7816   -3.6972    0.0000 C   0  0  0  0  0  0  0  0  0  0  0  0
   -1.6912   -4.1127    0.0000 F   0  0  0  0  0  0  0  0  0  0  0  0
   -1.3171   -1.1348    0.0000 C   0  0  0  0  0  0  0  0  0  0  0  0
   -0.3293   -0.9473    0.0000 C   0  0  0  0  0  0  0  0  0  0  0  0
    0.0000    0.0000    0.0000 C   0  0  0  0  0  0  0  0  0  0  0  0
    0.9824    0.1868    0.0000 Cl  0  0  0  0  0  0  0  0  0  0  0  0
   -0.6535    0.7598    0.0000 C   0  0  0  0  0  0  0  0  0  0  0  0
   -1.6362    0.5723    0.0000 C   0  0  0  0  0  0  0  0  0  0  0  0
   -1.9705   -0.3749    0.0000 C   0  0  0  0  0  0  0  0  0  0  0  0
   -2.9735   -0.4103    0.0000 N   0  0  0  0  0  0  0  0  0  0  0  0
  1  2  1  0
  2 23  1  0
  2  3  2  0
  3  4  1  0
  4  5  2  0
  5 23  1  0
  5  6  1  0
  6  7  1  0
  7  8  2  0
  8  9  1  0
  9 14  1  0
  9 10  2  0
 10 11  1  0
 11 12  2  0
 12 13  1  0
 13 14  2  0
 14 15  1  0
  8 16  1  0
 16 22  2  0
 16 17  1  0
 17 18  2  0
 18 19  1  0
 18 20  1  0
 20 21  2  0
 21 22  1  0
 22 23  1  0
M  END
>  <SMILES>  (783) 
Cc1ncc2n1-c1ccc(Cl)cc1C(c1ccccc1F)=NC2

>  <CollectionName>  (783) 
chembl

>  <LOG PLASMA PROTEIN BINDING (RAT) (% unbound)>  (783) 
0.65991620007

>  <Internal ID>  (783) 


>  <Source>  (783) 
AstraZeneca

$$$$
CHEMBL509973
     RDKit          2D

 20 22  0  0  1  0  0  0  0  0999 V2000
    6.2858    0.5025    0.0000 C   0  0  0  0  0  0  0  0  0  0  0  0
    5.7858   -0.3636    0.0000 C   0  0  0  0  0  0  0  0  0  0  0  0
    4.7858   -0.3636    0.0000 N   0  0  0  0  0  0  0  0  0  0  0  0
    4.2858    0.5024    0.0000 C   0  0  0  0  0  0  0  0  0  0  0  0
    4.7857    1.3684    0.0000 O   0  0  0  0  0  0  0  0  0  0  0  0
    3.2858    0.5023    0.0000 C   0  0  0  0  0  0  0  0  0  0  0  0
    2.6938   -0.3125    0.0000 C   0  0  0  0  0  0  0  0  0  0  0  0
    1.7360   -0.0012    0.0000 C   0  0  0  0  0  0  0  0  0  0  0  0
    0.8680   -0.4978    0.0000 C   0  0  0  0  0  0  0  0  0  0  0  0
    0.0000    0.0000    0.0000 C   0  0  0  0  0  0  0  0  0  0  0  0
    0.0000    1.0058    0.0000 C   0  0  0  0  0  0  0  0  0  0  0  0
    0.8680    1.5138    0.0000 C   0  0  0  0  0  0  0  0  0  0  0  0
    1.7360    1.0058    0.0000 C   0  0  0  0  0  0  0  0  0  0  0  0
    2.6938    1.3169    0.0000 N   0  0  0  0  0  0  0  0  0  0  0  0
    6.2859   -1.2296    0.0000 C   0  0  0  0  0  0  0  0  0  0  0  0
    7.2911   -1.2266    0.0000 C   0  0  0  0  0  0  0  0  0  0  0  0
    7.7912   -2.0926    0.0000 C   0  0  0  0  0  0  0  0  0  0  0  0
    7.2963   -2.9615    0.0000 C   0  0  0  0  0  0  0  0  0  0  0  0
    6.2911   -2.9646    0.0000 C   0  0  0  0  0  0  0  0  0  0  0  0
    5.7808   -2.0986    0.0000 C   0  0  0  0  0  0  0  0  0  0  0  0
  1  2  1  0
  2  3  1  0
  3  4  1  0
  4  5  2  0
  4  6  1  0
  6 14  1  0
  6  7  2  0
  7  8  1  0
  8 13  2  0
  8  9  1  0
  9 10  2  0
 10 11  1  0
 11 12  2  0
 12 13  1  0
 13 14  1  0
  2 15  1  0
 15 20  1  0
 15 16  2  0
 16 17  1  0
 17 18  2  0
 18 19  1  0
 19 20  2  0
M  END
>  <SMILES>  (784) 
CC(NC(=O)c1cc2ccccc2[nH]1)c1ccccc1

>  <CollectionName>  (784) 
chembl

>  <LOG PLASMA PROTEIN BINDING (RAT) (% unbound)>  (784) 
0.563481085394

>  <Internal ID>  (784) 


>  <Source>  (784) 
AstraZeneca

$$$$
CHEMBL516203
     RDKit          2D

 29 33  0  0  1  0  0  0  0  0999 V2000
   -1.7438    0.9949    0.0000 O   0  0  0  0  0  0  0  0  0  0  0  0
   -1.7395   -0.0051    0.0000 C   0  0  0  0  0  0  0  0  0  0  0  0
   -2.6093   -0.5089    0.0000 C   0  0  0  0  0  0  0  0  0  0  0  0
   -2.6049   -1.5090    0.0000 C   0  0  0  0  0  0  0  0  0  0  0  0
   -1.7396   -2.0102    0.0000 C   0  0  0  0  0  0  0  0  0  0  0  0
   -0.8698   -1.5064    0.0000 C   0  0  0  0  0  0  0  0  0  0  0  0
   -0.0045   -2.0077    0.0000 O   0  0  0  0  0  0  0  0  0  0  0  0
    0.8623   -1.5090    0.0000 C   0  0  0  0  0  0  0  0  0  0  0  0
    1.7275   -2.0103    0.0000 C   0  0  0  0  0  0  0  0  0  0  0  0
    2.2281   -2.8782    0.0000 C   0  0  0  0  0  0  0  0  0  0  0  0
    2.7294   -2.0129    0.0000 C   0  0  0  0  0  0  0  0  0  0  0  0
   -0.8653   -0.5013    0.0000 C   0  0  0  0  0  0  0  0  0  0  0  0
    0.0000    0.0000    0.0000 C   0  0  0  0  0  0  0  0  0  0  0  0
    0.0000    1.0057    0.0000 C   0  0  0  0  0  0  0  0  0  0  0  0
    0.8680    1.5138    0.0000 C   0  0  0  0  0  0  0  0  0  0  0  0
    0.8676    2.5138    0.0000 C   0  0  0  0  0  0  0  0  0  0  0  0
    0.0021    3.0148    0.0000 C   0  0  0  0  0  0  0  0  0  0  0  0
   -0.0026    4.0148    0.0000 C   0  0  0  0  0  0  0  0  0  0  0  0
    0.8671    4.5190    0.0000 C   0  0  0  0  0  0  0  0  0  0  0  0
    1.7414    4.0231    0.0000 N   0  0  0  0  0  0  0  0  0  0  0  0
    1.7373    3.0180    0.0000 C   0  0  0  0  0  0  0  0  0  0  0  0
    1.7374    1.0057    0.0000 C   0  0  0  0  0  0  0  0  0  0  0  0
    2.6052    1.5109    0.0000 C   0  0  0  0  0  0  0  0  0  0  0  0
    3.4774    1.0034    0.0000 O   0  0  0  0  0  0  0  0  0  0  0  0
    3.4761   -0.0036    0.0000 C   0  0  0  0  0  0  0  0  0  0  0  0
    4.3408   -0.5059    0.0000 O   0  0  0  0  0  0  0  0  0  0  0  0
    2.6026   -0.5032    0.0000 N   0  0  0  0  0  0  0  0  0  0  0  0
    1.7360   -0.0012    0.0000 C   0  0  0  0  0  0  0  0  0  0  0  0
    0.8680   -0.4978    0.0000 N   0  0  0  0  0  0  0  0  0  0  0  0
  1  2  1  0
  2 12  2  0
  2  3  1  0
  3  4  2  0
  4  5  1  0
  5  6  2  0
  6  7  1  0
  7  8  1  0
  8  9  1  0
  9 11  1  0
  9 10  1  0
 10 11  1  0
  6 12  1  0
 12 13  1  0
 13 29  1  0
 13 14  2  0
 14 15  1  0
 16 15  1  6
 16 21  1  0
 16 17  1  0
 17 18  1  0
 18 19  1  0
 19 20  1  0
 20 21  1  0
 15 22  2  0
 22 28  1  0
 22 23  1  0
 23 24  1  0
 24 25  1  0
 25 26  2  0
 25 27  1  0
 27 28  1  0
 28 29  2  0
M  END
>  <SMILES>  (785) 
O=C1Nc2nc(-c3c(O)cccc3OCC3CC3)cc([C@@H]3CCCNC3)c2CO1

>  <CollectionName>  (785) 
chembl

>  <LOG PLASMA PROTEIN BINDING (RAT) (% unbound)>  (785) 
1.09272064468

>  <Internal ID>  (785) 


>  <Source>  (785) 
AstraZeneca

$$$$
CHEMBL517140
     RDKit          2D

 26 29  0  0  1  0  0  0  0  0999 V2000
    3.9631    6.4992    0.0000 C   0  0  0  0  0  0  0  0  0  0  0  0
    3.9636    5.4992    0.0000 N   0  0  0  0  0  0  0  0  0  0  0  0
    4.8299    4.9997    0.0000 C   0  0  0  0  0  0  0  0  0  0  0  0
    5.6957    5.5001    0.0000 O   0  0  0  0  0  0  0  0  0  0  0  0
    4.8304    3.9997    0.0000 C   0  0  0  0  0  0  0  0  0  0  0  0
    3.9653    3.4980    0.0000 C   0  0  0  0  0  0  0  0  0  0  0  0
    3.9614    2.4979    0.0000 C   0  0  0  0  0  0  0  0  0  0  0  0
    4.8315    1.9945    0.0000 C   0  0  0  0  0  0  0  0  0  0  0  0
    4.8276    0.9945    0.0000 O   0  0  0  0  0  0  0  0  0  0  0  0
    3.9596    0.4979    0.0000 C   0  0  0  0  0  0  0  0  0  0  0  0
    3.9567   -0.5076    0.0000 C   0  0  0  0  0  0  0  0  0  0  0  0
    3.0837   -1.0052    0.0000 C   0  0  0  0  0  0  0  0  0  0  0  0
    2.2192   -0.5026    0.0000 C   0  0  0  0  0  0  0  0  0  0  0  0
    1.4241   -1.1362    0.0000 C   0  0  0  0  0  0  0  0  0  0  0  0
    0.4360   -0.9143    0.0000 C   0  0  0  0  0  0  0  0  0  0  0  0
    0.0000    0.0000    0.0000 N   0  0  0  0  0  0  0  0  0  0  0  0
    0.4384    0.9159    0.0000 C   0  0  0  0  0  0  0  0  0  0  0  0
    1.4290    1.1418    0.0000 C   0  0  0  0  0  0  0  0  0  0  0  0
    2.2220    0.5029    0.0000 C   0  0  0  0  0  0  0  0  0  0  0  0
    3.0895    1.0060    0.0000 C   0  0  0  0  0  0  0  0  0  0  0  0
   -1.0000    0.0007    0.0000 C   0  0  0  0  0  0  0  0  0  0  0  0
   -1.7066    0.7083    0.0000 C   0  0  0  0  0  0  0  0  0  0  0  0
   -2.4142    0.0018    0.0000 C   0  0  0  0  0  0  0  0  0  0  0  0
   -1.7076   -0.7059    0.0000 C   0  0  0  0  0  0  0  0  0  0  0  0
    5.7054    2.4911    0.0000 N   0  0  0  0  0  0  0  0  0  0  0  0
    5.7004    3.4962    0.0000 C   0  0  0  0  0  0  0  0  0  0  0  0
  1  2  1  0
  2  3  1  0
  3  4  2  0
  3  5  1  0
  5 26  2  0
  5  6  1  0
  6  7  2  0
  7  8  1  0
  8  9  1  0
  9 10  1  0
 10 20  1  0
 10 11  2  0
 11 12  1  0
 12 13  2  0
 13 19  1  0
 13 14  1  0
 14 15  1  0
 15 16  1  0
 16 17  1  0
 17 18  1  0
 18 19  1  0
 19 20  2  0
 16 21  1  0
 21 24  1  0
 21 22  1  0
 22 23  1  0
 23 24  1  0
  8 25  2  0
 25 26  1  0
M  END
>  <SMILES>  (786) 
CNC(=O)c1ccc(Oc2ccc3c(c2)CCN(C2CCC2)CC3)nc1

>  <CollectionName>  (786) 
chembl

>  <LOG PLASMA PROTEIN BINDING (RAT) (% unbound)>  (786) 
1.71850168887

>  <Internal ID>  (786) 


>  <Source>  (786) 
AstraZeneca

$$$$
CHEMBL1823817
     RDKit          2D

 33 35  0  0  1  0  0  0  0  0999 V2000
   -0.8645   -4.4975    0.0000 C   0  0  0  0  0  0  0  0  0  0  0  0
   -0.8645   -3.4975    0.0000 O   0  0  0  0  0  0  0  0  0  0  0  0
    0.0015   -2.9975    0.0000 C   0  0  0  0  0  0  0  0  0  0  0  0
    0.0015   -1.9975    0.0000 C   0  0  0  0  0  0  0  0  0  0  0  0
   -0.8645   -1.4975    0.0000 O   0  0  0  0  0  0  0  0  0  0  0  0
    0.8675   -1.4975    0.0000 C   0  0  0  0  0  0  0  0  0  0  0  0
    0.8675   -0.4975    0.0000 N   0  0  0  0  0  0  0  0  0  0  0  0
    0.0000    0.0000    0.0000 C   0  0  0  0  0  0  0  0  0  0  0  0
   -0.8653   -0.5013    0.0000 O   0  0  0  0  0  0  0  0  0  0  0  0
    0.0000    1.0052    0.0000 C   0  0  0  0  0  0  0  0  0  0  0  0
    0.8675    1.5129    0.0000 N   0  0  0  0  0  0  0  0  0  0  0  0
    1.7350    1.0052    0.0000 N   0  0  0  0  0  0  0  0  0  0  0  0
    1.7350    0.0000    0.0000 C   0  0  0  0  0  0  0  0  0  0  0  0
    2.6003   -0.5013    0.0000 O   0  0  0  0  0  0  0  0  0  0  0  0
    2.6025    1.5026    0.0000 C   0  0  0  0  0  0  0  0  0  0  0  0
    3.4700    0.9949    0.0000 C   0  0  0  0  0  0  0  0  0  0  0  0
    4.3376    1.4923    0.0000 C   0  0  0  0  0  0  0  0  0  0  0  0
    4.3464    2.4923    0.0000 C   0  0  0  0  0  0  0  0  0  0  0  0
    5.2161    2.9859    0.0000 Cl  0  0  0  0  0  0  0  0  0  0  0  0
    3.4788    3.0001    0.0000 C   0  0  0  0  0  0  0  0  0  0  0  0
    2.6025    2.5078    0.0000 C   0  0  0  0  0  0  0  0  0  0  0  0
    3.4877    4.0000    0.0000 C   0  0  0  0  0  0  0  0  0  0  0  0
    2.6261    4.5077    0.0000 O   0  0  0  0  0  0  0  0  0  0  0  0
    4.3581    4.4923    0.0000 N   0  0  0  0  0  0  0  0  0  0  0  0
    4.3670    5.4923    0.0000 C   0  0  0  0  0  0  0  0  0  0  0  0
    5.2374    5.9846    0.0000 C   0  0  0  0  0  0  0  0  0  0  0  0
    4.5629    6.7229    0.0000 O   0  0  0  0  0  0  0  0  0  0  0  0
    5.5226    5.0261    0.0000 C   0  0  0  0  0  0  0  0  0  0  0  0
    6.4573    4.6512    0.0000 C   0  0  0  0  0  0  0  0  0  0  0  0
    7.3320    5.1488    0.0000 C   0  0  0  0  0  0  0  0  0  0  0  0
    7.4856    6.1428    0.0000 C   0  0  0  0  0  0  0  0  0  0  0  0
    6.8105    6.8852    0.0000 C   0  0  0  0  0  0  0  0  0  0  0  0
    5.8101    6.8128    0.0000 C   0  0  0  0  0  0  0  0  0  0  0  0
  1  2  1  0
  2  3  1  0
  3  4  1  0
  4  5  1  6
  4  6  1  0
  6  7  1  0
  7 13  1  0
  7  8  1  0
  8  9  2  0
  8 10  1  0
 10 11  2  0
 11 12  1  0
 12 13  1  0
 13 14  2  0
 12 15  1  0
 15 21  1  0
 15 16  2  0
 16 17  1  0
 17 18  2  0
 18 19  1  0
 18 20  1  0
 20 21  2  0
 20 22  1  0
 22 23  2  0
 22 24  1  0
 24 25  1  0
 25 26  1  0
 26 33  1  0
 26 27  1  0
 26 28  1  0
 28 29  1  0
 29 30  1  0
 30 31  1  0
 31 32  1  0
 32 33  1  0
M  END
>  <SMILES>  (787) 
COC[C@H](O)Cn1c(=O)cnn(-c2ccc(Cl)c(C(=O)NCC3(O)CCCCCC3)c2)c1=O

>  <CollectionName>  (787) 
chembl

>  <LOG PLASMA PROTEIN BINDING (RAT) (% unbound)>  (787) 
1.67851837904

>  <Internal ID>  (787) 


>  <Source>  (787) 
AstraZeneca

$$$$
CHEMBL497963
     RDKit          2D

 32 35  0  0  0  0  0  0  0  0999 V2000
    4.3535    1.4968    0.0000 C   0  0  0  0  0  0  0  0  0  0  0  0
    3.4848    1.0014    0.0000 C   0  0  0  0  0  0  0  0  0  0  0  0
    3.4805   -0.0073    0.0000 C   0  0  0  0  0  0  0  0  0  0  0  0
    2.6039   -0.5053    0.0000 C   0  0  0  0  0  0  0  0  0  0  0  0
    1.7371    0.0000    0.0000 C   0  0  0  0  0  0  0  0  0  0  0  0
    0.8707   -0.4993    0.0000 C   0  0  0  0  0  0  0  0  0  0  0  0
    0.8718   -1.4993    0.0000 O   0  0  0  0  0  0  0  0  0  0  0  0
    1.7383   -1.9984    0.0000 C   0  0  0  0  0  0  0  0  0  0  0  0
    1.7394   -2.9984    0.0000 C   0  0  0  0  0  0  0  0  0  0  0  0
    2.6060   -3.4974    0.0000 N   0  0  0  0  0  0  0  0  0  0  0  0
    2.6130   -4.5026    0.0000 C   0  0  0  0  0  0  0  0  0  0  0  0
    3.4840   -5.0042    0.0000 C   0  0  0  0  0  0  0  0  0  0  0  0
    4.3481   -4.5008    0.0000 C   0  0  0  0  0  0  0  0  0  0  0  0
    5.2147   -4.9999    0.0000 C   0  0  0  0  0  0  0  0  0  0  0  0
    5.2157   -5.9999    0.0000 C   0  0  0  0  0  0  0  0  0  0  0  0
    4.3442   -6.5008    0.0000 C   0  0  0  0  0  0  0  0  0  0  0  0
    4.3453   -7.5008    0.0000 C   0  0  0  0  0  0  0  0  0  0  0  0
    5.2089   -8.0050    0.0000 C   0  0  0  0  0  0  0  0  0  0  0  0
    6.0804   -7.5040    0.0000 C   0  0  0  0  0  0  0  0  0  0  0  0
    6.9440   -8.0082    0.0000 N   0  0  0  0  0  0  0  0  0  0  0  0
    7.8124   -7.5124    0.0000 S   0  0  0  0  0  0  0  0  0  0  0  0
    8.3082   -8.3808    0.0000 O   0  0  0  0  0  0  0  0  0  0  0  0
    7.3166   -6.6440    0.0000 O   0  0  0  0  0  0  0  0  0  0  0  0
    8.6809   -7.0166    0.0000 C   0  0  0  0  0  0  0  0  0  0  0  0
    6.0882   -6.4989    0.0000 C   0  0  0  0  0  0  0  0  0  0  0  0
    4.3499   -3.5008    0.0000 C   0  0  0  0  0  0  0  0  0  0  0  0
    3.4789   -2.9991    0.0000 C   0  0  0  0  0  0  0  0  0  0  0  0
    0.0000    0.0000    0.0000 C   0  0  0  0  0  0  0  0  0  0  0  0
    0.0000    1.0089    0.0000 C   0  0  0  0  0  0  0  0  0  0  0  0
    0.8707    1.5185    0.0000 C   0  0  0  0  0  0  0  0  0  0  0  0
    1.7414    1.0089    0.0000 C   0  0  0  0  0  0  0  0  0  0  0  0
    2.6125    1.5125    0.0000 N   0  0  0  0  0  0  0  0  0  0  0  0
  1  2  1  0
  2 32  2  0
  2  3  1  0
  3  4  2  0
  4  5  1  0
  5 31  2  0
  5  6  1  0
  6  7  1  0
  7  8  1  0
  8  9  1  0
  9 10  1  0
 10 27  1  0
 10 11  1  0
 11 12  1  0
 12 13  1  0
 13 14  1  0
 14 15  1  0
 15 25  1  0
 15 16  2  0
 16 17  1  0
 17 18  2  0
 18 19  1  0
 19 20  1  0
 20 21  1  0
 21 22  2  0
 21 23  2  0
 21 24  1  0
 19 25  2  0
 13 26  1  0
 26 27  1  0
  6 28  2  0
 28 29  1  0
 29 30  2  0
 30 31  1  0
 31 32  1  0
M  END
>  <SMILES>  (788) 
Cc1ccc2c(OCCN3CCC(Cc4cccc(NS(C)(=O)=O)c4)CC3)cccc2n1

>  <CollectionName>  (788) 
chembl

>  <LOG PLASMA PROTEIN BINDING (RAT) (% unbound)>  (788) 
0.725911632295

>  <Internal ID>  (788) 


>  <Source>  (788) 
AstraZeneca

$$$$
CHEMBL1797387
     RDKit          2D

 27 29  0  0  0  0  0  0  0  0999 V2000
   -1.2577    1.2605    0.0000 C   0  0  0  0  0  0  0  0  0  0  0  0
   -0.3065    0.9519    0.0000 C   0  0  0  0  0  0  0  0  0  0  0  0
    0.5008    1.5428    0.0000 O   0  0  0  0  0  0  0  0  0  0  0  0
    1.3133    0.9519    0.0000 N   0  0  0  0  0  0  0  0  0  0  0  0
    1.0015   -0.0000    0.0000 C   0  0  0  0  0  0  0  0  0  0  0  0
    0.0000    0.0000    0.0000 C   0  0  0  0  0  0  0  0  0  0  0  0
   -0.5889   -0.8082    0.0000 N   0  0  0  0  0  0  0  0  0  0  0  0
   -1.5832   -0.7024    0.0000 C   0  0  0  0  0  0  0  0  0  0  0  0
   -1.9888    0.2117    0.0000 O   0  0  0  0  0  0  0  0  0  0  0  0
   -2.1721   -1.5106    0.0000 O   0  0  0  0  0  0  0  0  0  0  0  0
   -3.1665   -1.4048    0.0000 C   0  0  0  0  0  0  0  0  0  0  0  0
   -3.7553   -2.2130    0.0000 C   0  0  0  0  0  0  0  0  0  0  0  0
   -3.3532   -3.1342    0.0000 C   0  0  0  0  0  0  0  0  0  0  0  0
   -2.3591   -3.2430    0.0000 F   0  0  0  0  0  0  0  0  0  0  0  0
   -3.9451   -3.9466    0.0000 C   0  0  0  0  0  0  0  0  0  0  0  0
   -4.9392   -3.8379    0.0000 C   0  0  0  0  0  0  0  0  0  0  0  0
   -5.3474   -2.9250    0.0000 C   0  0  0  0  0  0  0  0  0  0  0  0
   -4.7554   -2.1125    0.0000 C   0  0  0  0  0  0  0  0  0  0  0  0
   -5.1637   -1.1996    0.0000 Cl  0  0  0  0  0  0  0  0  0  0  0  0
    1.5883   -0.8097    0.0000 C   0  0  0  0  0  0  0  0  0  0  0  0
    1.1838   -1.7299    0.0000 C   0  0  0  0  0  0  0  0  0  0  0  0
    0.1895   -1.8362    0.0000 Cl  0  0  0  0  0  0  0  0  0  0  0  0
    1.7737   -2.5438    0.0000 C   0  0  0  0  0  0  0  0  0  0  0  0
    2.7681   -2.4376    0.0000 C   0  0  0  0  0  0  0  0  0  0  0  0
    3.1786   -1.5257    0.0000 C   0  0  0  0  0  0  0  0  0  0  0  0
    2.5887   -0.7117    0.0000 C   0  0  0  0  0  0  0  0  0  0  0  0
    2.9992    0.2001    0.0000 Cl  0  0  0  0  0  0  0  0  0  0  0  0
  1  2  1  0
  2  6  2  0
  2  3  1  0
  3  4  1  0
  4  5  2  0
  5  6  1  0
  6  7  1  0
  7  8  1  0
  8  9  2  0
  8 10  1  0
 10 11  1  0
 11 12  1  0
 12 18  1  0
 12 13  2  0
 13 14  1  0
 13 15  1  0
 15 16  2  0
 16 17  1  0
 17 18  2  0
 18 19  1  0
  5 20  1  0
 20 26  1  0
 20 21  2  0
 21 22  1  0
 21 23  1  0
 23 24  2  0
 24 25  1  0
 25 26  2  0
 26 27  1  0
M  END
>  <SMILES>  (789) 
Cc1onc(-c2c(Cl)cccc2Cl)c1NC(=O)OCc1c(F)cccc1Cl

>  <CollectionName>  (789) 
chembl

>  <LOG PLASMA PROTEIN BINDING (RAT) (% unbound)>  (789) 
-0.52287874528

>  <Internal ID>  (789) 


>  <Source>  (789) 
AstraZeneca

$$$$
CHEMBL1818194
     RDKit          2D

 35 38  0  0  1  0  0  0  0  0999 V2000
   -4.3907   -8.4538    0.0000 C   0  0  0  0  0  0  0  0  0  0  0  0
   -3.5197   -7.9625    0.0000 C   0  0  0  0  0  0  0  0  0  0  0  0
   -4.0111   -7.0915    0.0000 C   0  0  0  0  0  0  0  0  0  0  0  0
   -3.0284   -8.8335    0.0000 C   0  0  0  0  0  0  0  0  0  0  0  0
   -2.6488   -7.4711    0.0000 O   0  0  0  0  0  0  0  0  0  0  0  0
   -2.6388   -6.4712    0.0000 C   0  0  0  0  0  0  0  0  0  0  0  0
   -3.4998   -5.9626    0.0000 O   0  0  0  0  0  0  0  0  0  0  0  0
   -1.7678   -5.9799    0.0000 N   0  0  0  0  0  0  0  0  0  0  0  0
   -1.7578   -4.9799    0.0000 C   0  0  0  0  0  0  0  0  0  0  0  0
   -0.8869   -4.4886    0.0000 C   0  0  0  0  0  0  0  0  0  0  0  0
   -0.8798   -3.4834    0.0000 C   0  0  0  0  0  0  0  0  0  0  0  0
   -0.0088   -2.9920    0.0000 C   0  0  0  0  0  0  0  0  0  0  0  0
    0.8552   -3.4956    0.0000 C   0  0  0  0  0  0  0  0  0  0  0  0
    1.7240   -3.0004    0.0000 C   0  0  0  0  0  0  0  0  0  0  0  0
    1.7295   -2.0004    0.0000 N   0  0  0  0  0  0  0  0  0  0  0  0
    2.5983   -1.5053    0.0000 C   0  0  0  0  0  0  0  0  0  0  0  0
    3.4615   -2.0101    0.0000 O   0  0  0  0  0  0  0  0  0  0  0  0
    2.6039   -0.5053    0.0000 C   0  0  0  0  0  0  0  0  0  0  0  0
    3.4805   -0.0073    0.0000 C   0  0  0  0  0  0  0  0  0  0  0  0
    3.4848    1.0014    0.0000 C   0  0  0  0  0  0  0  0  0  0  0  0
    2.6125    1.5125    0.0000 N   0  0  0  0  0  0  0  0  0  0  0  0
    1.7414    1.0089    0.0000 C   0  0  0  0  0  0  0  0  0  0  0  0
    0.8707    1.5185    0.0000 C   0  0  0  0  0  0  0  0  0  0  0  0
    0.0000    1.0089    0.0000 C   0  0  0  0  0  0  0  0  0  0  0  0
    0.0000    0.0000    0.0000 C   0  0  0  0  0  0  0  0  0  0  0  0
    0.8707   -0.4993    0.0000 C   0  0  0  0  0  0  0  0  0  0  0  0
    1.7371    0.0000    0.0000 C   0  0  0  0  0  0  0  0  0  0  0  0
    4.3535    1.4968    0.0000 C   0  0  0  0  0  0  0  0  0  0  0  0
    4.3559    2.4968    0.0000 C   0  0  0  0  0  0  0  0  0  0  0  0
    5.2291    2.9948    0.0000 C   0  0  0  0  0  0  0  0  0  0  0  0
    6.0999    2.4927    0.0000 N   0  0  0  0  0  0  0  0  0  0  0  0
    6.0886    1.4876    0.0000 C   0  0  0  0  0  0  0  0  0  0  0  0
    5.2154    0.9896    0.0000 C   0  0  0  0  0  0  0  0  0  0  0  0
    0.8481   -4.5008    0.0000 C   0  0  0  0  0  0  0  0  0  0  0  0
   -0.0230   -5.0024    0.0000 C   0  0  0  0  0  0  0  0  0  0  0  0
  1  2  1  0
  2  3  1  0
  2  4  1  0
  2  5  1  0
  5  6  1  0
  6  7  2  0
  6  8  1  0
  8  9  1  0
 10  9  1  6
 10 35  1  0
 10 11  1  0
 11 12  1  0
 12 13  1  0
 13 14  1  1
 14 15  1  0
 15 16  1  0
 16 17  2  0
 16 18  1  0
 18 27  1  0
 18 19  2  0
 19 20  1  0
 20 21  2  0
 21 22  1  0
 22 27  2  0
 22 23  1  0
 23 24  2  0
 24 25  1  0
 25 26  2  0
 26 27  1  0
 20 28  1  0
 28 33  1  0
 28 29  2  0
 29 30  1  0
 30 31  2  0
 31 32  1  0
 32 33  2  0
 13 34  1  0
 34 35  1  0
M  END
>  <SMILES>  (790) 
CC(C)(C)OC(=O)NC[C@H]1CC[C@H](CNC(=O)c2cc(-c3ccncc3)nc3ccccc23)CC1

>  <CollectionName>  (790) 
chembl

>  <LOG PLASMA PROTEIN BINDING (RAT) (% unbound)>  (790) 
0.301029995664

>  <Internal ID>  (790) 


>  <Source>  (790) 
AstraZeneca

$$$$
CHEMBL110999
     RDKit          2D

 30 32  0  0  1  0  0  0  0  0999 V2000
    0.8680    4.5138    0.0000 C   0  0  0  0  0  0  0  0  0  0  0  0
    0.0020    4.0138    0.0000 N   0  0  0  0  0  0  0  0  0  0  0  0
   -0.8641    4.5138    0.0000 C   0  0  0  0  0  0  0  0  0  0  0  0
   -0.8641    5.5138    0.0000 C   0  0  0  0  0  0  0  0  0  0  0  0
   -1.7301    6.0138    0.0000 C   0  0  0  0  0  0  0  0  0  0  0  0
   -1.7301    7.0138    0.0000 O   0  0  0  0  0  0  0  0  0  0  0  0
   -2.5961    7.5138    0.0000 C   0  0  0  0  0  0  0  0  0  0  0  0
   -2.5961    8.5138    0.0000 C   0  0  0  0  0  0  0  0  0  0  0  0
   -3.4621    9.0138    0.0000 O   0  0  0  0  0  0  0  0  0  0  0  0
   -3.4621   10.0138    0.0000 C   0  0  0  0  0  0  0  0  0  0  0  0
   -4.3282   10.5138    0.0000 C   0  0  0  0  0  0  0  0  0  0  0  0
   -4.3282   11.5138    0.0000 C   0  0  0  0  0  0  0  0  0  0  0  0
   -5.2002   12.0138    0.0000 C   0  0  0  0  0  0  0  0  0  0  0  0
   -5.2002   13.0139    0.0000 C   0  0  0  0  0  0  0  0  0  0  0  0
   -4.3371   13.5189    0.0000 C   0  0  0  0  0  0  0  0  0  0  0  0
   -3.4651   13.0189    0.0000 C   0  0  0  0  0  0  0  0  0  0  0  0
   -3.4562   12.0138    0.0000 C   0  0  0  0  0  0  0  0  0  0  0  0
    0.0020    3.0138    0.0000 C   0  0  0  0  0  0  0  0  0  0  0  0
    0.8680    2.5138    0.0000 C   0  0  0  0  0  0  0  0  0  0  0  0
    0.8680    1.5138    0.0000 C   0  0  0  0  0  0  0  0  0  0  0  0
    0.0000    1.0058    0.0000 C   0  0  0  0  0  0  0  0  0  0  0  0
    0.0000    0.0000    0.0000 C   0  0  0  0  0  0  0  0  0  0  0  0
    0.8680   -0.4978    0.0000 C   0  0  0  0  0  0  0  0  0  0  0  0
    0.8675   -1.4978    0.0000 O   0  0  0  0  0  0  0  0  0  0  0  0
    1.7360   -0.0012    0.0000 C   0  0  0  0  0  0  0  0  0  0  0  0
    2.6938   -0.3125    0.0000 N   0  0  0  0  0  0  0  0  0  0  0  0
    3.2858    0.5023    0.0000 C   0  0  0  0  0  0  0  0  0  0  0  0
    4.2858    0.5024    0.0000 O   0  0  0  0  0  0  0  0  0  0  0  0
    2.6938    1.3169    0.0000 S   0  0  0  0  0  0  0  0  0  0  0  0
    1.7360    1.0058    0.0000 C   0  0  0  0  0  0  0  0  0  0  0  0
  1  2  1  0
  2  3  1  0
  3  4  1  0
  4  5  1  0
  5  6  1  0
  6  7  1  0
  7  8  1  0
  8  9  1  0
  9 10  1  0
 10 11  1  0
 11 12  1  0
 12 17  1  0
 12 13  2  0
 13 14  1  0
 14 15  2  0
 15 16  1  0
 16 17  2  0
  2 18  1  0
 18 19  1  0
 19 20  1  0
 20 30  1  0
 20 21  2  0
 21 22  1  0
 22 23  2  0
 23 24  1  0
 23 25  1  0
 25 30  2  0
 25 26  1  0
 26 27  2  0
 27 28  1  0
 27 29  1  0
 29 30  1  0
M  END
>  <SMILES>  (791) 
CN(CCCOCCOCCc1ccccc1)CCc1ccc(O)c2nc(O)sc12

>  <CollectionName>  (791) 
chembl

>  <LOG PLASMA PROTEIN BINDING (RAT) (% unbound)>  (791) 
1.3807537708

>  <Internal ID>  (791) 


>  <Source>  (791) 
AstraZeneca

$$$$
CHEMBL493677
     RDKit          2D

 25 26  0  0  1  0  0  0  0  0999 V2000
    0.8660    5.5104    0.0000 C   0  0  0  0  0  0  0  0  0  0  0  0
    0.8660    4.5104    0.0000 C   0  0  0  0  0  0  0  0  0  0  0  0
    1.8660    4.5104    0.0000 C   0  0  0  0  0  0  0  0  0  0  0  0
   -0.1340    4.5104    0.0000 C   0  0  0  0  0  0  0  0  0  0  0  0
    0.8660    3.5104    0.0000 C   0  0  0  0  0  0  0  0  0  0  0  0
   -0.0000    3.0104    0.0000 C   0  0  0  0  0  0  0  0  0  0  0  0
   -0.0000    2.0104    0.0000 N   0  0  0  0  0  0  0  0  0  0  0  0
   -0.8675    1.5027    0.0000 C   0  0  0  0  0  0  0  0  0  0  0  0
   -0.8675    0.4975    0.0000 C   0  0  0  0  0  0  0  0  0  0  0  0
    0.0000    0.0000    0.0000 C   0  0  0  0  0  0  0  0  0  0  0  0
    0.0000   -1.0000    0.0000 C   0  0  0  0  0  0  0  0  0  0  0  0
    0.8660   -1.5000    0.0000 N   0  0  0  0  0  0  0  0  0  0  0  0
    0.8660   -2.5000    0.0000 C   0  0  0  0  0  0  0  0  0  0  0  0
    0.0000   -3.0000    0.0000 O   0  0  0  0  0  0  0  0  0  0  0  0
    1.7321   -3.0000    0.0000 C   0  0  0  0  0  0  0  0  0  0  0  0
    2.5966   -2.4975    0.0000 C   0  0  0  0  0  0  0  0  0  0  0  0
    3.4672   -3.0001    0.0000 C   0  0  0  0  0  0  0  0  0  0  0  0
    4.3317   -2.4975    0.0000 Cl  0  0  0  0  0  0  0  0  0  0  0  0
    3.4731   -4.0052    0.0000 C   0  0  0  0  0  0  0  0  0  0  0  0
    2.5997   -4.5026    0.0000 C   0  0  0  0  0  0  0  0  0  0  0  0
    2.5967   -5.5026    0.0000 Cl  0  0  0  0  0  0  0  0  0  0  0  0
    1.7291   -4.0000    0.0000 C   0  0  0  0  0  0  0  0  0  0  0  0
    0.8675    0.4975    0.0000 C   0  0  0  0  0  0  0  0  0  0  0  0
    1.7328   -0.0038    0.0000 F   0  0  0  0  0  0  0  0  0  0  0  0
    0.8675    1.5027    0.0000 C   0  0  0  0  0  0  0  0  0  0  0  0
  1  2  1  0
  2  3  1  0
  2  4  1  0
  2  5  1  0
  5  6  1  0
  6  7  1  0
  7 25  1  0
  7  8  1  0
  8  9  1  0
  9 10  1  0
 10 11  1  1
 11 12  1  0
 12 13  1  0
 13 14  2  0
 13 15  1  0
 15 22  1  0
 15 16  2  0
 16 17  1  0
 17 18  1  0
 17 19  2  0
 19 20  1  0
 20 21  1  0
 20 22  2  0
 10 23  1  0
 23 24  1  1
 23 25  1  0
M  END
>  <SMILES>  (792) 
CC(C)(C)CCN1CC[C@H](CNC(=O)c2cc(Cl)cc(Cl)c2)[C@H](F)C1

>  <CollectionName>  (792) 
chembl

>  <LOG PLASMA PROTEIN BINDING (RAT) (% unbound)>  (792) 
0.922206277439

>  <Internal ID>  (792) 


>  <Source>  (792) 
AstraZeneca

$$$$
CHEMBL494161
     RDKit          2D

 26 27  0  0  0  0  0  0  0  0999 V2000
   -5.2065    0.9796    0.0000 C   0  0  0  0  0  0  0  0  0  0  0  0
   -4.3434    1.4847    0.0000 O   0  0  0  0  0  0  0  0  0  0  0  0
   -3.4745    0.9898    0.0000 C   0  0  0  0  0  0  0  0  0  0  0  0
   -3.4672   -0.0102    0.0000 C   0  0  0  0  0  0  0  0  0  0  0  0
   -2.6004   -0.5089    0.0000 C   0  0  0  0  0  0  0  0  0  0  0  0
   -2.5974   -1.5089    0.0000 C   0  0  0  0  0  0  0  0  0  0  0  0
   -3.4620   -2.0115    0.0000 C   0  0  0  0  0  0  0  0  0  0  0  0
   -1.7299   -2.0064    0.0000 C   0  0  0  0  0  0  0  0  0  0  0  0
   -1.7320   -0.0025    0.0000 C   0  0  0  0  0  0  0  0  0  0  0  0
   -0.8653   -0.5013    0.0000 O   0  0  0  0  0  0  0  0  0  0  0  0
    0.0000    0.0000    0.0000 C   0  0  0  0  0  0  0  0  0  0  0  0
    0.0000    1.0052    0.0000 C   0  0  0  0  0  0  0  0  0  0  0  0
    0.8675    1.5129    0.0000 N   0  0  0  0  0  0  0  0  0  0  0  0
    1.7350    1.0052    0.0000 C   0  0  0  0  0  0  0  0  0  0  0  0
    2.6025    1.5026    0.0000 N   0  0  0  0  0  0  0  0  0  0  0  0
    2.6054    2.5026    0.0000 C   0  0  0  0  0  0  0  0  0  0  0  0
    1.7409    3.0052    0.0000 C   0  0  0  0  0  0  0  0  0  0  0  0
    0.8734    2.5077    0.0000 O   0  0  0  0  0  0  0  0  0  0  0  0
    3.4729    3.0001    0.0000 C   0  0  0  0  0  0  0  0  0  0  0  0
    3.4759    4.0001    0.0000 O   0  0  0  0  0  0  0  0  0  0  0  0
    1.7350    0.0000    0.0000 N   0  0  0  0  0  0  0  0  0  0  0  0
    0.8675   -0.4975    0.0000 C   0  0  0  0  0  0  0  0  0  0  0  0
    0.8675   -1.4975    0.0000 N   0  0  0  0  0  0  0  0  0  0  0  0
   -1.7305    1.0026    0.0000 C   0  0  0  0  0  0  0  0  0  0  0  0
   -2.6062    1.4962    0.0000 C   0  0  0  0  0  0  0  0  0  0  0  0
   -2.6135    2.4962    0.0000 I   0  0  0  0  0  0  0  0  0  0  0  0
  1  2  1  0
  2  3  1  0
  3 25  2  0
  3  4  1  0
  4  5  2  0
  5  6  1  0
  6  7  1  0
  6  8  1  0
  5  9  1  0
  9 10  1  0
 10 11  1  0
 11 22  1  0
 11 12  2  0
 12 13  1  0
 13 14  2  0
 14 15  1  0
 15 16  1  0
 16 17  1  0
 17 18  1  0
 16 19  1  0
 19 20  1  0
 14 21  1  0
 21 22  2  0
 22 23  1  0
  9 24  2  0
 24 25  1  0
 25 26  1  0
M  END
>  <SMILES>  (793) 
COc1cc(C(C)C)c(Oc2cnc(NC(CO)CO)nc2N)cc1I

>  <CollectionName>  (793) 
chembl

>  <LOG PLASMA PROTEIN BINDING (RAT) (% unbound)>  (793) 
0.447158031342

>  <Internal ID>  (793) 


>  <Source>  (793) 
AstraZeneca

$$$$
CHEMBL1509029
     RDKit          2D

 22 24  0  0  0  0  0  0  0  0999 V2000
   -5.2014   -1.0006    0.0000 C   0  0  0  0  0  0  0  0  0  0  0  0
   -4.3346   -0.5018    0.0000 C   0  0  0  0  0  0  0  0  0  0  0  0
   -4.3317    0.4982    0.0000 C   0  0  0  0  0  0  0  0  0  0  0  0
   -3.4671    1.0007    0.0000 C   0  0  0  0  0  0  0  0  0  0  0  0
   -2.5966    0.4981    0.0000 C   0  0  0  0  0  0  0  0  0  0  0  0
   -2.5907   -0.5070    0.0000 C   0  0  0  0  0  0  0  0  0  0  0  0
   -3.4641   -1.0044    0.0000 C   0  0  0  0  0  0  0  0  0  0  0  0
   -3.4670   -2.0044    0.0000 C   0  0  0  0  0  0  0  0  0  0  0  0
   -1.7320    1.0007    0.0000 S   0  0  0  0  0  0  0  0  0  0  0  0
   -2.2346    1.8652    0.0000 O   0  0  0  0  0  0  0  0  0  0  0  0
   -1.2295    0.1361    0.0000 O   0  0  0  0  0  0  0  0  0  0  0  0
   -0.8675    1.5032    0.0000 N   0  0  0  0  0  0  0  0  0  0  0  0
   -0.0000    1.0058    0.0000 C   0  0  0  0  0  0  0  0  0  0  0  0
    0.0000    0.0000    0.0000 C   0  0  0  0  0  0  0  0  0  0  0  0
    0.8680   -0.4978    0.0000 C   0  0  0  0  0  0  0  0  0  0  0  0
    1.7360   -0.0012    0.0000 C   0  0  0  0  0  0  0  0  0  0  0  0
    2.6938   -0.3125    0.0000 N   0  0  0  0  0  0  0  0  0  0  0  0
    3.2858    0.5023    0.0000 C   0  0  0  0  0  0  0  0  0  0  0  0
    4.2858    0.5024    0.0000 C   0  0  0  0  0  0  0  0  0  0  0  0
    2.6938    1.3169    0.0000 S   0  0  0  0  0  0  0  0  0  0  0  0
    1.7360    1.0058    0.0000 C   0  0  0  0  0  0  0  0  0  0  0  0
    0.8680    1.5138    0.0000 C   0  0  0  0  0  0  0  0  0  0  0  0
  1  2  1  0
  2  7  2  0
  2  3  1  0
  3  4  2  0
  4  5  1  0
  5  6  2  0
  6  7  1  0
  7  8  1  0
  5  9  1  0
  9 10  2  0
  9 11  2  0
  9 12  1  0
 12 13  1  0
 13 22  1  0
 13 14  2  0
 14 15  1  0
 15 16  2  0
 16 21  1  0
 16 17  1  0
 17 18  2  0
 18 19  1  0
 18 20  1  0
 20 21  1  0
 21 22  2  0
M  END
>  <SMILES>  (794) 
Cc1nc2ccc(NS(=O)(=O)c3ccc(C)c(C)c3)cc2s1

>  <CollectionName>  (794) 
chembl

>  <LOG PLASMA PROTEIN BINDING (RAT) (% unbound)>  (794) 
-0.619788758288

>  <Internal ID>  (794) 


>  <Source>  (794) 
AstraZeneca

$$$$
CHEMBL1770298
     RDKit          2D

 28 30  0  0  1  0  0  0  0  0999 V2000
   -1.2577    1.2605    0.0000 C   0  0  0  0  0  0  0  0  0  0  0  0
   -0.3065    0.9519    0.0000 C   0  0  0  0  0  0  0  0  0  0  0  0
    0.0000    0.0000    0.0000 C   0  0  0  0  0  0  0  0  0  0  0  0
    1.0015    0.0000    0.0000 C   0  0  0  0  0  0  0  0  0  0  0  0
    1.3133    0.9519    0.0000 C   0  0  0  0  0  0  0  0  0  0  0  0
    0.5008    1.5428    0.0000 S   0  0  0  0  0  0  0  0  0  0  0  0
    2.2648    1.2596    0.0000 C   0  0  0  0  0  0  0  0  0  0  0  0
    3.0070    0.5894    0.0000 N   0  0  0  0  0  0  0  0  0  0  0  0
    3.9585    0.8970    0.0000 C   0  0  0  0  0  0  0  0  0  0  0  0
    4.1678    1.8749    0.0000 O   0  0  0  0  0  0  0  0  0  0  0  0
    4.7007    0.2268    0.0000 C   0  0  0  0  0  0  0  0  0  0  0  0
    5.6526    0.5331    0.0000 C   0  0  0  0  0  0  0  0  0  0  0  0
    6.3978   -0.1338    0.0000 C   0  0  0  0  0  0  0  0  0  0  0  0
    6.1888   -1.1171    0.0000 C   0  0  0  0  0  0  0  0  0  0  0  0
    5.2347   -1.4333    0.0000 C   0  0  0  0  0  0  0  0  0  0  0  0
    4.4917   -0.7564    0.0000 C   0  0  0  0  0  0  0  0  0  0  0  0
    3.5397   -1.0626    0.0000 O   0  0  0  0  0  0  0  0  0  0  0  0
    2.4741    2.2374    0.0000 C   0  0  0  0  0  0  0  0  0  0  0  0
    3.4256    2.5451    0.0000 O   0  0  0  0  0  0  0  0  0  0  0  0
    1.7319    2.9076    0.0000 N   0  0  0  0  0  0  0  0  0  0  0  0
    1.9412    3.8855    0.0000 C   0  0  0  0  0  0  0  0  0  0  0  0
    2.8958    4.2003    0.0000 C   0  0  0  0  0  0  0  0  0  0  0  0
    3.6399    3.5323    0.0000 C   0  0  0  0  0  0  0  0  0  0  0  0
    3.1062    5.1833    0.0000 C   0  0  0  0  0  0  0  0  0  0  0  0
    2.3620    5.8513    0.0000 C   0  0  0  0  0  0  0  0  0  0  0  0
    1.4096    5.5464    0.0000 C   0  0  0  0  0  0  0  0  0  0  0  0
    1.1992    4.5635    0.0000 C   0  0  0  0  0  0  0  0  0  0  0  0
    0.2468    4.2586    0.0000 C   0  0  0  0  0  0  0  0  0  0  0  0
  1  2  1  0
  2  6  1  0
  2  3  2  0
  3  4  1  0
  4  5  2  0
  5  6  1  0
  5  7  1  0
  7  8  1  0
  8  9  1  0
  9 10  2  0
  9 11  1  0
 11 16  1  0
 11 12  2  0
 12 13  1  0
 13 14  2  0
 14 15  1  0
 15 16  2  0
 16 17  1  0
  7 18  1  0
 18 19  2  0
 18 20  1  0
 20 21  1  0
 21 27  1  0
 21 22  2  0
 22 23  1  0
 22 24  1  0
 24 25  2  0
 25 26  1  0
 26 27  2  0
 27 28  1  0
M  END
>  <SMILES>  (795) 
Cc1ccc(C(NC(=O)c2ccccc2O)C(=O)Nc2c(C)cccc2C)s1

>  <CollectionName>  (795) 
chembl

>  <LOG PLASMA PROTEIN BINDING (RAT) (% unbound)>  (795) 
-0.124938736608

>  <Internal ID>  (795) 


>  <Source>  (795) 
AstraZeneca

$$$$
CHEMBL1782167
     RDKit          2D

 26 29  0  0  0  0  0  0  0  0999 V2000
   -0.8609   -1.5064    0.0000 C   0  0  0  0  0  0  0  0  0  0  0  0
   -1.7284   -1.0089    0.0000 C   0  0  0  0  0  0  0  0  0  0  0  0
   -2.5937   -1.5103    0.0000 C   0  0  0  0  0  0  0  0  0  0  0  0
   -3.4634   -1.0166    0.0000 C   0  0  0  0  0  0  0  0  0  0  0  0
   -3.4678   -0.0114    0.0000 C   0  0  0  0  0  0  0  0  0  0  0  0
   -2.6025    0.5001    0.0000 C   0  0  0  0  0  0  0  0  0  0  0  0
   -1.7328   -0.0038    0.0000 C   0  0  0  0  0  0  0  0  0  0  0  0
   -0.8675    0.4975    0.0000 C   0  0  0  0  0  0  0  0  0  0  0  0
    0.0000    0.0000    0.0000 C   0  0  0  0  0  0  0  0  0  0  0  0
    0.8675    0.4975    0.0000 C   0  0  0  0  0  0  0  0  0  0  0  0
    0.8675    1.5027    0.0000 C   0  0  0  0  0  0  0  0  0  0  0  0
    0.0000    2.0104    0.0000 N   0  0  0  0  0  0  0  0  0  0  0  0
   -0.8675    1.5027    0.0000 C   0  0  0  0  0  0  0  0  0  0  0  0
    1.7350    2.0001    0.0000 C   0  0  0  0  0  0  0  0  0  0  0  0
    1.7379    3.0001    0.0000 O   0  0  0  0  0  0  0  0  0  0  0  0
    2.5995    1.4976    0.0000 N   0  0  0  0  0  0  0  0  0  0  0  0
    3.4670    1.9950    0.0000 C   0  0  0  0  0  0  0  0  0  0  0  0
    4.3316    1.4925    0.0000 C   0  0  0  0  0  0  0  0  0  0  0  0
    4.8309    0.6239    0.0000 C   0  0  0  0  0  0  0  0  0  0  0  0
    5.3335    1.4884    0.0000 C   0  0  0  0  0  0  0  0  0  0  0  0
   -4.3375    0.4822    0.0000 C   0  0  0  0  0  0  0  0  0  0  0  0
   -4.3448    1.4822    0.0000 O   0  0  0  0  0  0  0  0  0  0  0  0
   -5.1998   -0.0241    0.0000 N   0  0  0  0  0  0  0  0  0  0  0  0
   -6.0695    0.4695    0.0000 C   0  0  0  0  0  0  0  0  0  0  0  0
   -6.5777    1.3329    0.0000 C   0  0  0  0  0  0  0  0  0  0  0  0
   -7.0713    0.4632    0.0000 C   0  0  0  0  0  0  0  0  0  0  0  0
  1  2  1  0
  2  7  2  0
  2  3  1  0
  3  4  2  0
  4  5  1  0
  5  6  2  0
  6  7  1  0
  7  8  1  0
  8 13  1  0
  8  9  2  0
  9 10  1  0
 10 11  2  0
 11 12  1  0
 12 13  2  0
 11 14  1  0
 14 15  2  0
 14 16  1  0
 16 17  1  0
 17 18  1  0
 18 20  1  0
 18 19  1  0
 19 20  1  0
  5 21  1  0
 21 22  2  0
 21 23  1  0
 23 24  1  0
 24 26  1  0
 24 25  1  0
 25 26  1  0
M  END
>  <SMILES>  (796) 
Cc1ccc(C(=O)NC2CC2)cc1-c1ccc(C(=O)NCC2CC2)nc1

>  <CollectionName>  (796) 
chembl

>  <LOG PLASMA PROTEIN BINDING (RAT) (% unbound)>  (796) 
0.949390006645

>  <Internal ID>  (796) 


>  <Source>  (796) 
AstraZeneca

$$$$
CHEMBL2337981
     RDKit          2D

 30 31  0  0  0  0  0  0  0  0999 V2000
    3.4641    7.0104    0.0000 C   0  0  0  0  0  0  0  0  0  0  0  0
    2.5981    6.5104    0.0000 C   0  0  0  0  0  0  0  0  0  0  0  0
    3.0981    5.6444    0.0000 C   0  0  0  0  0  0  0  0  0  0  0  0
    2.0981    7.3764    0.0000 C   0  0  0  0  0  0  0  0  0  0  0  0
    1.7321    6.0104    0.0000 N   0  0  0  0  0  0  0  0  0  0  0  0
    1.7321    5.0104    0.0000 C   0  0  0  0  0  0  0  0  0  0  0  0
    2.5981    4.5104    0.0000 O   0  0  0  0  0  0  0  0  0  0  0  0
    0.8660    4.5104    0.0000 N   0  0  0  0  0  0  0  0  0  0  0  0
    0.8660    3.5104    0.0000 C   0  0  0  0  0  0  0  0  0  0  0  0
   -0.0000    3.0104    0.0000 C   0  0  0  0  0  0  0  0  0  0  0  0
   -0.0000    2.0104    0.0000 N   0  0  0  0  0  0  0  0  0  0  0  0
   -0.8675    1.5027    0.0000 C   0  0  0  0  0  0  0  0  0  0  0  0
   -0.8675    0.4975    0.0000 C   0  0  0  0  0  0  0  0  0  0  0  0
    0.0000    0.0000    0.0000 C   0  0  0  0  0  0  0  0  0  0  0  0
   -0.6420   -0.7667    0.0000 C   0  0  0  0  0  0  0  0  0  0  0  0
   -0.2991   -1.7060    0.0000 O   0  0  0  0  0  0  0  0  0  0  0  0
    0.6420   -0.7667    0.0000 C   0  0  0  0  0  0  0  0  0  0  0  0
    1.6270   -0.5940    0.0000 N   0  0  0  0  0  0  0  0  0  0  0  0
    2.2691   -1.3606    0.0000 C   0  0  0  0  0  0  0  0  0  0  0  0
    1.9261   -2.3000    0.0000 O   0  0  0  0  0  0  0  0  0  0  0  0
    3.2540   -1.1879    0.0000 C   0  0  0  0  0  0  0  0  0  0  0  0
    3.5943   -0.2476    0.0000 C   0  0  0  0  0  0  0  0  0  0  0  0
    4.5844   -0.0740    0.0000 C   0  0  0  0  0  0  0  0  0  0  0  0
    4.9245    0.8664    0.0000 Cl  0  0  0  0  0  0  0  0  0  0  0  0
    5.2342   -0.8408    0.0000 C   0  0  0  0  0  0  0  0  0  0  0  0
    4.8840   -1.7829    0.0000 C   0  0  0  0  0  0  0  0  0  0  0  0
    5.5238   -2.5515    0.0000 Cl  0  0  0  0  0  0  0  0  0  0  0  0
    3.8939   -1.9565    0.0000 C   0  0  0  0  0  0  0  0  0  0  0  0
    0.8675    0.4975    0.0000 C   0  0  0  0  0  0  0  0  0  0  0  0
    0.8675    1.5027    0.0000 C   0  0  0  0  0  0  0  0  0  0  0  0
  1  2  1  0
  2  3  1  0
  2  4  1  0
  2  5  1  0
  5  6  1  0
  6  7  2  0
  6  8  1  0
  8  9  1  0
  9 10  1  0
 10 11  1  0
 11 30  1  0
 11 12  1  0
 12 13  1  0
 13 14  1  0
 14 15  1  0
 15 16  1  0
 14 17  1  0
 17 18  1  0
 18 19  1  0
 19 20  2  0
 19 21  1  0
 21 28  1  0
 21 22  2  0
 22 23  1  0
 23 24  1  0
 23 25  2  0
 25 26  1  0
 26 27  1  0
 26 28  2  0
 14 29  1  0
 29 30  1  0
M  END
>  <SMILES>  (797) 
CC(C)(C)NC(=O)NCCN1CCC(CO)(CNC(=O)c2cc(Cl)cc(Cl)c2)CC1

>  <CollectionName>  (797) 
chembl

>  <LOG PLASMA PROTEIN BINDING (RAT) (% unbound)>  (797) 
1.30276370847

>  <Internal ID>  (797) 


>  <Source>  (797) 
AstraZeneca

$$$$
CHEMBL2338400
     RDKit          2D

 30 33  0  0  0  0  0  0  0  0999 V2000
   -2.5966   -5.4975    0.0000 C   0  0  0  0  0  0  0  0  0  0  0  0
   -1.7306   -4.9975    0.0000 C   0  0  0  0  0  0  0  0  0  0  0  0
   -2.2306   -4.1315    0.0000 C   0  0  0  0  0  0  0  0  0  0  0  0
   -1.2306   -5.8635    0.0000 C   0  0  0  0  0  0  0  0  0  0  0  0
   -0.8645   -4.4975    0.0000 N   0  0  0  0  0  0  0  0  0  0  0  0
   -0.8645   -3.4975    0.0000 C   0  0  0  0  0  0  0  0  0  0  0  0
   -1.7306   -2.9975    0.0000 O   0  0  0  0  0  0  0  0  0  0  0  0
    0.0015   -2.9975    0.0000 N   0  0  0  0  0  0  0  0  0  0  0  0
    0.0015   -1.9975    0.0000 C   0  0  0  0  0  0  0  0  0  0  0  0
    0.8675   -1.4975    0.0000 C   0  0  0  0  0  0  0  0  0  0  0  0
    0.8675   -0.4975    0.0000 N   0  0  0  0  0  0  0  0  0  0  0  0
    0.0000    0.0000    0.0000 C   0  0  0  0  0  0  0  0  0  0  0  0
    0.0000    1.0052    0.0000 C   0  0  0  0  0  0  0  0  0  0  0  0
    0.8675    1.5129    0.0000 N   0  0  0  0  0  0  0  0  0  0  0  0
    0.8675    2.5129    0.0000 C   0  0  0  0  0  0  0  0  0  0  0  0
    1.7335    3.0129    0.0000 C   0  0  0  0  0  0  0  0  0  0  0  0
    2.5996    2.5129    0.0000 O   0  0  0  0  0  0  0  0  0  0  0  0
    1.7335    4.0129    0.0000 N   0  0  0  0  0  0  0  0  0  0  0  0
    2.5996    4.5129    0.0000 C   0  0  0  0  0  0  0  0  0  0  0  0
    3.3816    3.8740    0.0000 C   0  0  0  0  0  0  0  0  0  0  0  0
    4.2794    4.4308    0.0000 C   0  0  0  0  0  0  0  0  0  0  0  0
    5.4921    4.1802    0.0000 C   0  0  0  0  0  0  0  0  0  0  0  0
    4.6834    4.9312    0.0000 C   0  0  0  0  0  0  0  0  0  0  0  0
    4.5004    5.9852    0.0000 C   0  0  0  0  0  0  0  0  0  0  0  0
    3.3547    6.1252    0.0000 C   0  0  0  0  0  0  0  0  0  0  0  0
    4.0797    5.4107    0.0000 C   0  0  0  0  0  0  0  0  0  0  0  0
    2.4280    5.5667    0.0000 C   0  0  0  0  0  0  0  0  0  0  0  0
    3.7248    4.3399    0.0000 C   0  0  0  0  0  0  0  0  0  0  0  0
    1.7350    1.0052    0.0000 C   0  0  0  0  0  0  0  0  0  0  0  0
    1.7350    0.0000    0.0000 C   0  0  0  0  0  0  0  0  0  0  0  0
  1  2  1  0
  2  3  1  0
  2  4  1  0
  2  5  1  0
  5  6  1  0
  6  7  2  0
  6  8  1  0
  8  9  1  0
  9 10  1  0
 10 11  1  0
 11 30  1  0
 11 12  1  0
 12 13  1  0
 13 14  1  0
 14 15  1  0
 15 16  1  0
 16 17  2  0
 16 18  1  0
 18 19  1  0
 19 27  1  0
 19 28  1  0
 19 20  1  0
 20 21  1  0
 21 26  1  0
 21 22  1  0
 22 23  1  0
 23 24  1  0
 24 25  1  0
 25 26  1  0
 25 27  1  0
 23 28  1  0
 14 29  1  0
 29 30  1  0
M  END
>  <SMILES>  (798) 
CC(C)(C)NC(=O)NCCN1CCN(CC(=O)NC23CC4CC(CC(C4)C2)C3)CC1

>  <CollectionName>  (798) 
chembl

>  <LOG PLASMA PROTEIN BINDING (RAT) (% unbound)>  (798) 
1.48967729166

>  <Internal ID>  (798) 


>  <Source>  (798) 
AstraZeneca

$$$$
CHEMBL1346
     RDKit          2D

 32 36  0  0  1  0  0  0  0  0999 V2000
    0.8819   -2.3912    0.0000 N   0  0  0  0  0  0  0  0  0  0  0  0
    0.7786   -1.3965    0.0000 C   0  0  0  0  0  0  0  0  0  0  0  0
   -0.1345   -0.9887    0.0000 O   0  0  0  0  0  0  0  0  0  0  0  0
    1.5883   -0.8097    0.0000 C   0  0  0  0  0  0  0  0  0  0  0  0
    1.0015   -0.0000    0.0000 C   0  0  0  0  0  0  0  0  0  0  0  0
    0.0000    0.0000    0.0000 C   0  0  0  0  0  0  0  0  0  0  0  0
   -0.3065    0.9519    0.0000 C   0  0  0  0  0  0  0  0  0  0  0  0
    0.5008    1.5428    0.0000 N   0  0  0  0  0  0  0  0  0  0  0  0
    0.4993    2.5428    0.0000 C   0  0  0  0  0  0  0  0  0  0  0  0
    1.3645    3.0441    0.0000 C   0  0  0  0  0  0  0  0  0  0  0  0
    1.3630    4.0441    0.0000 C   0  0  0  0  0  0  0  0  0  0  0  0
    0.4919    4.5469    0.0000 C   0  0  0  0  0  0  0  0  0  0  0  0
    0.4859    5.5527    0.0000 C   0  0  0  0  0  0  0  0  0  0  0  0
    1.3598    6.0504    0.0000 C   0  0  0  0  0  0  0  0  0  0  0  0
    1.5692    7.0355    0.0000 O   0  0  0  0  0  0  0  0  0  0  0  0
    2.5706    7.1410    0.0000 C   0  0  0  0  0  0  0  0  0  0  0  0
    2.9804    6.2209    0.0000 C   0  0  0  0  0  0  0  0  0  0  0  0
    2.2319    5.5470    0.0000 C   0  0  0  0  0  0  0  0  0  0  0  0
    2.2281    4.5470    0.0000 C   0  0  0  0  0  0  0  0  0  0  0  0
    1.3133    0.9519    0.0000 C   0  0  0  0  0  0  0  0  0  0  0  0
    2.3980   -0.2229    0.0000 C   0  0  0  0  0  0  0  0  0  0  0  0
    2.2912    0.7766    0.0000 C   0  0  0  0  0  0  0  0  0  0  0  0
    3.1009    1.3635    0.0000 C   0  0  0  0  0  0  0  0  0  0  0  0
    4.0164    0.9610    0.0000 C   0  0  0  0  0  0  0  0  0  0  0  0
    4.1232   -0.0385    0.0000 C   0  0  0  0  0  0  0  0  0  0  0  0
    3.3146   -0.6355    0.0000 C   0  0  0  0  0  0  0  0  0  0  0  0
    2.6153   -2.2267    0.0000 C   0  0  0  0  0  0  0  0  0  0  0  0
    3.6148   -2.1199    0.0000 C   0  0  0  0  0  0  0  0  0  0  0  0
    4.2016   -2.9296    0.0000 C   0  0  0  0  0  0  0  0  0  0  0  0
    3.7992   -3.8451    0.0000 C   0  0  0  0  0  0  0  0  0  0  0  0
    2.7997   -3.9519    0.0000 C   0  0  0  0  0  0  0  0  0  0  0  0
    2.2026   -3.1433    0.0000 C   0  0  0  0  0  0  0  0  0  0  0  0
  1  2  1  0
  2  3  2  0
  2  4  1  0
  5  4  1  6
  5 20  1  0
  5  6  1  0
  6  7  1  0
  7  8  1  0
  8  9  1  0
  9 10  1  0
 10 11  1  0
 11 19  1  0
 11 12  2  0
 12 13  1  0
 13 14  2  0
 14 18  1  0
 14 15  1  0
 15 16  1  0
 16 17  1  0
 17 18  1  0
 18 19  2  0
  8 20  1  0
  4 21  1  0
 21 26  1  0
 21 22  2  0
 22 23  1  0
 23 24  2  0
 24 25  1  0
 25 26  2  0
  4 27  1  0
 27 32  1  0
 27 28  2  0
 28 29  1  0
 29 30  2  0
 30 31  1  0
 31 32  2  0
M  END
>  <SMILES>  (799) 
NC(=O)C(c1ccccc1)(c1ccccc1)[C@@H]1CCN(CCc2ccc3c(c2)CCO3)C1

>  <CollectionName>  (799) 
chembl

>  <LOG PLASMA PROTEIN BINDING (RAT) (% unbound)>  (799) 
0.894316062684

>  <Internal ID>  (799) 


>  <Source>  (799) 
AstraZeneca

$$$$
CHEMBL2316109
     RDKit          2D

 31 34  0  0  1  0  0  0  0  0999 V2000
    4.3411   -4.5108    0.0000 C   0  0  0  0  0  0  0  0  0  0  0  0
    5.2064   -4.0096    0.0000 S   0  0  0  0  0  0  0  0  0  0  0  0
    6.0731   -4.5085    0.0000 O   0  0  0  0  0  0  0  0  0  0  0  0
    5.2051   -3.0096    0.0000 C   0  0  0  0  0  0  0  0  0  0  0  0
    4.3384   -2.5108    0.0000 C   0  0  0  0  0  0  0  0  0  0  0  0
    3.4696   -3.0156    0.0000 C   0  0  0  0  0  0  0  0  0  0  0  0
    2.5986   -2.5127    0.0000 C   0  0  0  0  0  0  0  0  0  0  0  0
    2.5966   -1.5050    0.0000 C   0  0  0  0  0  0  0  0  0  0  0  0
    1.7313   -1.0038    0.0000 C   0  0  0  0  0  0  0  0  0  0  0  0
    0.8646   -1.5025    0.0000 O   0  0  0  0  0  0  0  0  0  0  0  0
    1.7328   -0.0038    0.0000 N   0  0  0  0  0  0  0  0  0  0  0  0
    0.8675    0.4975    0.0000 C   0  0  0  0  0  0  0  0  0  0  0  0
    0.0000    0.0000    0.0000 C   0  0  0  0  0  0  0  0  0  0  0  0
   -0.8675    0.4975    0.0000 C   0  0  0  0  0  0  0  0  0  0  0  0
   -0.8675    1.5027    0.0000 C   0  0  0  0  0  0  0  0  0  0  0  0
   -0.0000    2.0104    0.0000 N   0  0  0  0  0  0  0  0  0  0  0  0
    0.8675    1.5027    0.0000 C   0  0  0  0  0  0  0  0  0  0  0  0
    1.7350    2.0001    0.0000 C   0  0  0  0  0  0  0  0  0  0  0  0
    1.7379    3.0001    0.0000 O   0  0  0  0  0  0  0  0  0  0  0  0
    2.5995    1.4976    0.0000 N   0  0  0  0  0  0  0  0  0  0  0  0
    3.4670    1.9950    0.0000 C   0  0  0  0  0  0  0  0  0  0  0  0
    3.4700    2.9950    0.0000 C   0  0  0  0  0  0  0  0  0  0  0  0
    2.7650    3.7042    0.0000 C   0  0  0  0  0  0  0  0  0  0  0  0
    3.4742    4.4092    0.0000 C   0  0  0  0  0  0  0  0  0  0  0  0
    4.1792    3.7000    0.0000 C   0  0  0  0  0  0  0  0  0  0  0  0
    3.4676   -1.0078    0.0000 C   0  0  0  0  0  0  0  0  0  0  0  0
    3.4605   -0.0023    0.0000 C   0  0  0  0  0  0  0  0  0  0  0  0
    4.3336    0.4965    0.0000 C   0  0  0  0  0  0  0  0  0  0  0  0
    5.2052   -0.0053    0.0000 C   0  0  0  0  0  0  0  0  0  0  0  0
    5.2036   -1.0058    0.0000 C   0  0  0  0  0  0  0  0  0  0  0  0
    4.3385   -1.5108    0.0000 C   0  0  0  0  0  0  0  0  0  0  0  0
  1  2  1  0
  2  3  1  0
  2  4  1  0
  4  5  1  0
  5 31  2  0
  5  6  1  0
  6  7  2  0
  7  8  1  0
  8  9  1  0
  9 10  2  0
  9 11  1  0
 11 12  1  0
 12 17  1  0
 12 13  2  0
 13 14  1  0
 14 15  2  0
 15 16  1  0
 16 17  2  0
 17 18  1  0
 18 19  2  0
 18 20  1  0
 20 21  1  0
 21 22  1  0
 22 25  1  0
 22 23  1  0
 23 24  1  0
 24 25  1  0
  8 26  2  0
 26 31  1  0
 26 27  1  0
 27 28  2  0
 28 29  1  0
 29 30  2  0
 30 31  1  0
M  CHG  2   2   1   3  -1
M  END
>  <SMILES>  (800) 
C[S+]([O-])Cc1ccc(C(=O)Nc2cccnc2C(=O)NCC2CCC2)c2ccccc12

>  <CollectionName>  (800) 
chembl

>  <LOG PLASMA PROTEIN BINDING (RAT) (% unbound)>  (800) 
0.0755469613925

>  <Internal ID>  (800) 


>  <Source>  (800) 
AstraZeneca

$$$$
CHEMBL2324776
     RDKit          2D

 34 37  0  0  0  0  0  0  0  0999 V2000
    6.0704   -1.4860    0.0000 F   0  0  0  0  0  0  0  0  0  0  0  0
    5.2066   -1.9898    0.0000 C   0  0  0  0  0  0  0  0  0  0  0  0
    4.3376   -1.4949    0.0000 C   0  0  0  0  0  0  0  0  0  0  0  0
    3.4716   -1.9949    0.0000 C   0  0  0  0  0  0  0  0  0  0  0  0
    2.6048   -1.4962    0.0000 O   0  0  0  0  0  0  0  0  0  0  0  0
    1.7395   -1.9975    0.0000 C   0  0  0  0  0  0  0  0  0  0  0  0
    1.7396   -2.9976    0.0000 C   0  0  0  0  0  0  0  0  0  0  0  0
    0.8764   -3.5026    0.0000 C   0  0  0  0  0  0  0  0  0  0  0  0
    0.0044   -3.0026    0.0000 C   0  0  0  0  0  0  0  0  0  0  0  0
   -0.0045   -1.9975    0.0000 C   0  0  0  0  0  0  0  0  0  0  0  0
    0.8675   -1.4975    0.0000 C   0  0  0  0  0  0  0  0  0  0  0  0
    0.8675   -0.4975    0.0000 C   0  0  0  0  0  0  0  0  0  0  0  0
    0.0000    0.0000    0.0000 C   0  0  0  0  0  0  0  0  0  0  0  0
    0.0000    1.0052    0.0000 C   0  0  0  0  0  0  0  0  0  0  0  0
    0.8675    1.5129    0.0000 N   0  0  0  0  0  0  0  0  0  0  0  0
    1.7350    1.0052    0.0000 N   0  0  0  0  0  0  0  0  0  0  0  0
    1.7350    0.0000    0.0000 C   0  0  0  0  0  0  0  0  0  0  0  0
   -0.8586   -3.5077    0.0000 C   0  0  0  0  0  0  0  0  0  0  0  0
   -0.3535   -4.3708    0.0000 F   0  0  0  0  0  0  0  0  0  0  0  0
   -1.3637   -2.6446    0.0000 F   0  0  0  0  0  0  0  0  0  0  0  0
   -1.7217   -4.0128    0.0000 F   0  0  0  0  0  0  0  0  0  0  0  0
    3.4745   -3.0001    0.0000 C   0  0  0  0  0  0  0  0  0  0  0  0
    2.6085   -3.5001    0.0000 Cl  0  0  0  0  0  0  0  0  0  0  0  0
    4.3435   -3.5053    0.0000 C   0  0  0  0  0  0  0  0  0  0  0  0
    5.2095   -2.9950    0.0000 C   0  0  0  0  0  0  0  0  0  0  0  0
    6.0785   -3.4899    0.0000 S   0  0  0  0  0  0  0  0  0  0  0  0
    5.5836   -4.3588    0.0000 O   0  0  0  0  0  0  0  0  0  0  0  0
    6.5734   -2.6209    0.0000 O   0  0  0  0  0  0  0  0  0  0  0  0
    6.9474   -3.9848    0.0000 N   0  0  0  0  0  0  0  0  0  0  0  0
    7.8105   -3.4797    0.0000 C   0  0  0  0  0  0  0  0  0  0  0  0
    8.7283   -3.8807    0.0000 N   0  0  0  0  0  0  0  0  0  0  0  0
    9.3951   -3.1334    0.0000 N   0  0  0  0  0  0  0  0  0  0  0  0
    8.8889   -2.2711    0.0000 C   0  0  0  0  0  0  0  0  0  0  0  0
    7.9106   -2.4801    0.0000 S   0  0  0  0  0  0  0  0  0  0  0  0
  1  2  1  0
  2 25  2  0
  2  3  1  0
  3  4  2  0
  4  5  1  0
  5  6  1  0
  6 11  1  0
  6  7  2  0
  7  8  1  0
  8  9  2  0
  9 10  1  0
 10 11  2  0
 11 12  1  0
 12 17  1  0
 12 13  2  0
 13 14  1  0
 14 15  2  0
 15 16  1  0
 16 17  2  0
  9 18  1  0
 18 19  1  0
 18 20  1  0
 18 21  1  0
  4 22  1  0
 22 23  1  0
 22 24  2  0
 24 25  1  0
 25 26  1  0
 26 27  2  0
 26 28  2  0
 26 29  1  0
 29 30  1  0
 30 34  1  0
 30 31  2  0
 31 32  1  0
 32 33  2  0
 33 34  1  0
M  END
>  <SMILES>  (801) 
O=S(=O)(Nc1nncs1)c1cc(Cl)c(Oc2ccc(C(F)(F)F)cc2-c2ccnnc2)cc1F

>  <CollectionName>  (801) 
chembl

>  <LOG PLASMA PROTEIN BINDING (RAT) (% unbound)>  (801) 
0.301029995664

>  <Internal ID>  (801) 


>  <Source>  (801) 
AstraZeneca

$$$$
CHEMBL2325021
     RDKit          2D

 34 37  0  0  0  0  0  0  0  0999 V2000
   -0.3535   -4.3708    0.0000 F   0  0  0  0  0  0  0  0  0  0  0  0
   -0.8586   -3.5077    0.0000 C   0  0  0  0  0  0  0  0  0  0  0  0
   -1.3637   -2.6446    0.0000 F   0  0  0  0  0  0  0  0  0  0  0  0
   -1.7217   -4.0128    0.0000 F   0  0  0  0  0  0  0  0  0  0  0  0
    0.0044   -3.0026    0.0000 C   0  0  0  0  0  0  0  0  0  0  0  0
    0.8764   -3.5026    0.0000 C   0  0  0  0  0  0  0  0  0  0  0  0
    1.7396   -2.9976    0.0000 C   0  0  0  0  0  0  0  0  0  0  0  0
    1.7395   -1.9975    0.0000 C   0  0  0  0  0  0  0  0  0  0  0  0
    2.6048   -1.4962    0.0000 O   0  0  0  0  0  0  0  0  0  0  0  0
    3.4716   -1.9949    0.0000 C   0  0  0  0  0  0  0  0  0  0  0  0
    4.3376   -1.4949    0.0000 C   0  0  0  0  0  0  0  0  0  0  0  0
    5.2066   -1.9898    0.0000 C   0  0  0  0  0  0  0  0  0  0  0  0
    5.2095   -2.9950    0.0000 C   0  0  0  0  0  0  0  0  0  0  0  0
    4.3435   -3.5053    0.0000 C   0  0  0  0  0  0  0  0  0  0  0  0
    3.4745   -3.0001    0.0000 C   0  0  0  0  0  0  0  0  0  0  0  0
    2.6085   -3.5001    0.0000 C   0  0  0  0  0  0  0  0  0  0  0  0
    1.7425   -4.0001    0.0000 N   0  0  0  0  0  0  0  0  0  0  0  0
    6.0785   -3.4899    0.0000 S   0  0  0  0  0  0  0  0  0  0  0  0
    6.5734   -2.6209    0.0000 O   0  0  0  0  0  0  0  0  0  0  0  0
    5.5836   -4.3589    0.0000 O   0  0  0  0  0  0  0  0  0  0  0  0
    6.9474   -3.9848    0.0000 N   0  0  0  0  0  0  0  0  0  0  0  0
    6.9533   -4.9848    0.0000 C   0  0  0  0  0  0  0  0  0  0  0  0
    6.1461   -5.5748    0.0000 N   0  0  0  0  0  0  0  0  0  0  0  0
    6.4608   -6.5256    0.0000 C   0  0  0  0  0  0  0  0  0  0  0  0
    7.4623   -6.5225    0.0000 N   0  0  0  0  0  0  0  0  0  0  0  0
    7.7679   -5.5655    0.0000 S   0  0  0  0  0  0  0  0  0  0  0  0
    0.8675   -1.4975    0.0000 C   0  0  0  0  0  0  0  0  0  0  0  0
   -0.0045   -1.9975    0.0000 C   0  0  0  0  0  0  0  0  0  0  0  0
    0.8675   -0.4975    0.0000 C   0  0  0  0  0  0  0  0  0  0  0  0
    0.0000    0.0000    0.0000 C   0  0  0  0  0  0  0  0  0  0  0  0
    0.0000    1.0052    0.0000 C   0  0  0  0  0  0  0  0  0  0  0  0
    0.8675    1.5129    0.0000 N   0  0  0  0  0  0  0  0  0  0  0  0
    1.7350    1.0052    0.0000 N   0  0  0  0  0  0  0  0  0  0  0  0
    1.7350    0.0000    0.0000 C   0  0  0  0  0  0  0  0  0  0  0  0
  1  2  1  0
  2  3  1  0
  2  4  1  0
  2  5  1  0
  5 28  2  0
  5  6  1  0
  6  7  2  0
  7  8  1  0
  8  9  1  0
  9 10  1  0
 10 15  1  0
 10 11  2  0
 11 12  1  0
 12 13  2  0
 13 14  1  0
 14 15  2  0
 15 16  1  0
 16 17  3  0
 13 18  1  0
 18 19  2  0
 18 20  2  0
 18 21  1  0
 21 22  1  0
 22 26  1  0
 22 23  2  0
 23 24  1  0
 24 25  2  0
 25 26  1  0
  8 27  2  0
 27 28  1  0
 27 29  1  0
 29 34  1  0
 29 30  2  0
 30 31  1  0
 31 32  2  0
 32 33  1  0
 33 34  2  0
M  END
>  <SMILES>  (802) 
N#Cc1cc(S(=O)(=O)Nc2ncns2)ccc1Oc1ccc(C(F)(F)F)cc1-c1ccnnc1

>  <CollectionName>  (802) 
chembl

>  <LOG PLASMA PROTEIN BINDING (RAT) (% unbound)>  (802) 
0.320146286111

>  <Internal ID>  (802) 


>  <Source>  (802) 
AstraZeneca

$$$$
CHEMBL1282
     RDKit          2D

 18 20  0  0  0  0  0  0  0  0999 V2000
    1.7925    4.9382    0.0000 C   0  0  0  0  0  0  0  0  0  0  0  0
    2.4593    4.1929    0.0000 C   0  0  0  0  0  0  0  0  0  0  0  0
    3.4381    4.3977    0.0000 C   0  0  0  0  0  0  0  0  0  0  0  0
    2.1472    3.2429    0.0000 C   0  0  0  0  0  0  0  0  0  0  0  0
    2.8140    2.4976    0.0000 N   0  0  0  0  0  0  0  0  0  0  0  0
    3.8170    2.5999    0.0000 C   0  0  0  0  0  0  0  0  0  0  0  0
    4.2240    1.6775    0.0000 N   0  0  0  0  0  0  0  0  0  0  0  0
    3.4726    1.0054    0.0000 C   0  0  0  0  0  0  0  0  0  0  0  0
    3.4748    0.0022    0.0000 C   0  0  0  0  0  0  0  0  0  0  0  0
    4.3410   -0.4975    0.0000 N   0  0  0  0  0  0  0  0  0  0  0  0
    2.6038   -0.4989    0.0000 N   0  0  0  0  0  0  0  0  0  0  0  0
    1.7371    0.0000    0.0000 C   0  0  0  0  0  0  0  0  0  0  0  0
    0.8679   -0.4978    0.0000 C   0  0  0  0  0  0  0  0  0  0  0  0
    0.0000    0.0000    0.0000 C   0  0  0  0  0  0  0  0  0  0  0  0
    0.0000    1.0056    0.0000 C   0  0  0  0  0  0  0  0  0  0  0  0
    0.8679    1.5134    0.0000 C   0  0  0  0  0  0  0  0  0  0  0  0
    1.7358    1.0056    0.0000 C   0  0  0  0  0  0  0  0  0  0  0  0
    2.6012    1.5124    0.0000 C   0  0  0  0  0  0  0  0  0  0  0  0
  1  2  1  0
  2  3  1  0
  2  4  1  0
  4  5  1  0
  5 18  1  0
  5  6  1  0
  6  7  2  0
  7  8  1  0
  8 18  2  0
  8  9  1  0
  9 10  1  0
  9 11  2  0
 11 12  1  0
 12 17  2  0
 12 13  1  0
 13 14  2  0
 14 15  1  0
 15 16  2  0
 16 17  1  0
 17 18  1  0
M  END
>  <SMILES>  (803) 
CC(C)Cn1cnc2c(N)nc3ccccc3c21

>  <CollectionName>  (803) 
chembl

>  <LOG PLASMA PROTEIN BINDING (RAT) (% unbound)>  (803) 
1.25406445291

>  <Internal ID>  (803) 


>  <Source>  (803) 
AstraZeneca

$$$$
CHEMBL463981
     RDKit          2D

 22 22  0  0  1  0  0  0  0  0999 V2000
   -0.7232    2.9080    0.0000 O   0  0  0  0  0  0  0  0  0  0  0  0
   -1.6744    3.2166    0.0000 C   0  0  0  0  0  0  0  0  0  0  0  0
   -2.4172    2.5472    0.0000 C   0  0  0  0  0  0  0  0  0  0  0  0
   -2.2089    1.5691    0.0000 N   0  0  0  0  0  0  0  0  0  0  0  0
   -1.2577    1.2605    0.0000 S   0  0  0  0  0  0  0  0  0  0  0  0
   -1.5663    0.3093    0.0000 O   0  0  0  0  0  0  0  0  0  0  0  0
   -0.9491    2.2117    0.0000 O   0  0  0  0  0  0  0  0  0  0  0  0
   -0.3065    0.9519    0.0000 C   0  0  0  0  0  0  0  0  0  0  0  0
    0.0000    0.0000    0.0000 C   0  0  0  0  0  0  0  0  0  0  0  0
    1.0015    0.0000    0.0000 C   0  0  0  0  0  0  0  0  0  0  0  0
    1.3133    0.9519    0.0000 C   0  0  0  0  0  0  0  0  0  0  0  0
    2.2648    1.2596    0.0000 Cl  0  0  0  0  0  0  0  0  0  0  0  0
    0.5008    1.5428    0.0000 S   0  0  0  0  0  0  0  0  0  0  0  0
   -3.3684    2.8558    0.0000 C   0  0  0  0  0  0  0  0  0  0  0  0
   -3.5768    3.8338    0.0000 C   0  0  0  0  0  0  0  0  0  0  0  0
   -2.5987    4.0422    0.0000 F   0  0  0  0  0  0  0  0  0  0  0  0
   -4.5548    3.6255    0.0000 F   0  0  0  0  0  0  0  0  0  0  0  0
   -3.7851    4.8119    0.0000 F   0  0  0  0  0  0  0  0  0  0  0  0
   -4.1113    2.1863    0.0000 C   0  0  0  0  0  0  0  0  0  0  0  0
   -4.7807    2.9292    0.0000 F   0  0  0  0  0  0  0  0  0  0  0  0
   -3.4418    1.4435    0.0000 F   0  0  0  0  0  0  0  0  0  0  0  0
   -4.8541    1.5169    0.0000 F   0  0  0  0  0  0  0  0  0  0  0  0
  1  2  1  0
  3  2  1  1
  3  4  1  0
  4  5  1  0
  5  6  2  0
  5  7  2  0
  5  8  1  0
  8 13  1  0
  8  9  2  0
  9 10  1  0
 10 11  2  0
 11 12  1  0
 11 13  1  0
  3 14  1  0
 14 15  1  0
 15 16  1  0
 15 17  1  0
 15 18  1  0
 14 19  1  0
 19 20  1  0
 19 21  1  0
 19 22  1  0
M  END
>  <SMILES>  (804) 
O=S(=O)(N[C@H](CO)C(C(F)(F)F)C(F)(F)F)c1ccc(Cl)s1

>  <CollectionName>  (804) 
chembl

>  <LOG PLASMA PROTEIN BINDING (RAT) (% unbound)>  (804) 
1.03941411918

>  <Internal ID>  (804) 


>  <Source>  (804) 
AstraZeneca

$$$$
CHEMBL436826
     RDKit          2D

 43 47  0  0  1  0  0  0  0  0999 V2000
    8.6731   -2.0120    0.0000 C   0  0  0  0  0  0  0  0  0  0  0  0
    7.8093   -1.5081    0.0000 C   0  0  0  0  0  0  0  0  0  0  0  0
    6.9411   -2.0042    0.0000 O   0  0  0  0  0  0  0  0  0  0  0  0
    6.0773   -1.5004    0.0000 C   0  0  0  0  0  0  0  0  0  0  0  0
    5.2060   -2.0016    0.0000 C   0  0  0  0  0  0  0  0  0  0  0  0
    4.3422   -1.4978    0.0000 C   0  0  0  0  0  0  0  0  0  0  0  0
    4.3408   -0.4978    0.0000 C   0  0  0  0  0  0  0  0  0  0  0  0
    5.2121    0.0035    0.0000 C   0  0  0  0  0  0  0  0  0  0  0  0
    6.0848   -0.4953    0.0000 C   0  0  0  0  0  0  0  0  0  0  0  0
    3.4748    0.0023    0.0000 N   0  0  0  0  0  0  0  0  0  0  0  0
    2.6038   -0.4989    0.0000 C   0  0  0  0  0  0  0  0  0  0  0  0
    2.6037   -1.4989    0.0000 O   0  0  0  0  0  0  0  0  0  0  0  0
    1.7371    0.0000    0.0000 C   0  0  0  0  0  0  0  0  0  0  0  0
    0.8679   -0.4977    0.0000 C   0  0  0  0  0  0  0  0  0  0  0  0
    0.0000    0.0000    0.0000 C   0  0  0  0  0  0  0  0  0  0  0  0
    0.0000    1.0056    0.0000 C   0  0  0  0  0  0  0  0  0  0  0  0
    0.8679    1.5135    0.0000 C   0  0  0  0  0  0  0  0  0  0  0  0
    1.7358    1.0056    0.0000 C   0  0  0  0  0  0  0  0  0  0  0  0
    2.6012    1.5123    0.0000 N   0  0  0  0  0  0  0  0  0  0  0  0
    3.4735    1.0079    0.0000 C   0  0  0  0  0  0  0  0  0  0  0  0
    4.3394    1.5082    0.0000 C   0  0  0  0  0  0  0  0  0  0  0  0
    5.2056    1.0084    0.0000 C   0  0  0  0  0  0  0  0  0  0  0  0
    4.3391    2.5082    0.0000 N   0  0  0  0  0  0  0  0  0  0  0  0
    5.2049    3.0084    0.0000 C   0  0  0  0  0  0  0  0  0  0  0  0
    6.0711    2.5087    0.0000 C   0  0  0  0  0  0  0  0  0  0  0  0
    6.9377    3.0077    0.0000 C   0  0  0  0  0  0  0  0  0  0  0  0
    7.8061    2.5118    0.0000 C   0  0  0  0  0  0  0  0  0  0  0  0
    7.8079    1.5066    0.0000 C   0  0  0  0  0  0  0  0  0  0  0  0
    6.9413    0.9973    0.0000 N   0  0  0  0  0  0  0  0  0  0  0  0
    6.0729    1.5035    0.0000 C   0  0  0  0  0  0  0  0  0  0  0  0
    3.4729    3.0079    0.0000 C   0  0  0  0  0  0  0  0  0  0  0  0
    3.4726    4.0079    0.0000 O   0  0  0  0  0  0  0  0  0  0  0  0
    2.6070    2.5076    0.0000 C   0  0  0  0  0  0  0  0  0  0  0  0
    1.7408    3.0074    0.0000 C   0  0  0  0  0  0  0  0  0  0  0  0
    1.7391    4.0074    0.0000 C   0  0  0  0  0  0  0  0  0  0  0  0
    0.8750    4.5109    0.0000 C   0  0  0  0  0  0  0  0  0  0  0  0
    0.0039    4.0093    0.0000 C   0  0  0  0  0  0  0  0  0  0  0  0
   -0.0031    3.0042    0.0000 C   0  0  0  0  0  0  0  0  0  0  0  0
    0.8697    2.5058    0.0000 C   0  0  0  0  0  0  0  0  0  0  0  0
   -0.8600    4.5128    0.0000 C   0  0  0  0  0  0  0  0  0  0  0  0
   -1.3636    3.6489    0.0000 F   0  0  0  0  0  0  0  0  0  0  0  0
   -0.3565    5.3768    0.0000 F   0  0  0  0  0  0  0  0  0  0  0  0
   -1.7240    5.0164    0.0000 F   0  0  0  0  0  0  0  0  0  0  0  0
  1  2  1  0
  2  3  1  0
  3  4  1  0
  4  9  2  0
  4  5  1  0
  5  6  2  0
  6  7  1  0
  7  8  2  0
  8  9  1  0
  7 10  1  0
 10 20  1  0
 10 11  1  0
 11 12  2  0
 11 13  1  0
 13 18  2  0
 13 14  1  0
 14 15  2  0
 15 16  1  0
 16 17  2  0
 17 18  1  0
 18 19  1  0
 19 20  2  0
 20 21  1  0
 21 22  1  6
 21 23  1  0
 23 24  1  0
 24 25  1  0
 25 30  1  0
 25 26  2  0
 26 27  1  0
 27 28  2  0
 28 29  1  0
 29 30  2  0
 23 31  1  0
 31 32  2  0
 31 33  1  0
 33 34  1  0
 34 39  1  0
 34 35  2  0
 35 36  1  0
 36 37  2  0
 37 38  1  0
 38 39  2  0
 37 40  1  0
 40 41  1  0
 40 42  1  0
 40 43  1  0
M  END
>  <SMILES>  (805) 
CCOc1ccc(-n2c([C@@H](C)N(Cc3cccnc3)C(=O)Cc3ccc(C(F)(F)F)cc3)nc3ccccc3c2=O)cc1

>  <CollectionName>  (805) 
chembl

>  <LOG PLASMA PROTEIN BINDING (RAT) (% unbound)>  (805) 
0.164352855784

>  <Internal ID>  (805) 


>  <Source>  (805) 
AstraZeneca

$$$$
CHEMBL1689111
     RDKit          2D

 29 31  0  0  0  0  0  0  0  0999 V2000
    3.4685   -2.9975    0.0000 O   0  0  0  0  0  0  0  0  0  0  0  0
    2.6033   -3.4988    0.0000 C   0  0  0  0  0  0  0  0  0  0  0  0
    2.6048   -4.4988    0.0000 O   0  0  0  0  0  0  0  0  0  0  0  0
    1.7365   -3.0001    0.0000 C   0  0  0  0  0  0  0  0  0  0  0  0
    0.8712   -3.5014    0.0000 O   0  0  0  0  0  0  0  0  0  0  0  0
    0.0044   -3.0027    0.0000 C   0  0  0  0  0  0  0  0  0  0  0  0
   -0.8616   -3.5028    0.0000 C   0  0  0  0  0  0  0  0  0  0  0  0
   -1.7306   -3.0078    0.0000 C   0  0  0  0  0  0  0  0  0  0  0  0
   -1.7335   -2.0026    0.0000 C   0  0  0  0  0  0  0  0  0  0  0  0
   -2.6025   -1.5077    0.0000 Cl  0  0  0  0  0  0  0  0  0  0  0  0
   -0.8675   -1.4924    0.0000 C   0  0  0  0  0  0  0  0  0  0  0  0
    0.0015   -1.9975    0.0000 C   0  0  0  0  0  0  0  0  0  0  0  0
    0.8675   -1.4975    0.0000 C   0  0  0  0  0  0  0  0  0  0  0  0
    0.8675   -0.4975    0.0000 N   0  0  0  0  0  0  0  0  0  0  0  0
    0.0000    0.0000    0.0000 C   0  0  0  0  0  0  0  0  0  0  0  0
    0.0000    1.0052    0.0000 C   0  0  0  0  0  0  0  0  0  0  0  0
    0.8675    1.5129    0.0000 N   0  0  0  0  0  0  0  0  0  0  0  0
    1.7350    1.0052    0.0000 C   0  0  0  0  0  0  0  0  0  0  0  0
    1.7350    0.0000    0.0000 C   0  0  0  0  0  0  0  0  0  0  0  0
    0.8675    2.5129    0.0000 S   0  0  0  0  0  0  0  0  0  0  0  0
    1.8675    2.5129    0.0000 O   0  0  0  0  0  0  0  0  0  0  0  0
   -0.1325    2.5129    0.0000 O   0  0  0  0  0  0  0  0  0  0  0  0
    0.8675    3.5129    0.0000 C   0  0  0  0  0  0  0  0  0  0  0  0
    1.7335    4.0129    0.0000 C   0  0  0  0  0  0  0  0  0  0  0  0
    1.7306    5.0181    0.0000 C   0  0  0  0  0  0  0  0  0  0  0  0
    2.5966    5.5182    0.0000 C   0  0  0  0  0  0  0  0  0  0  0  0
    3.4656    5.0232    0.0000 C   0  0  0  0  0  0  0  0  0  0  0  0
    3.4685    4.0180    0.0000 C   0  0  0  0  0  0  0  0  0  0  0  0
    2.6025    3.5078    0.0000 C   0  0  0  0  0  0  0  0  0  0  0  0
  1  2  1  0
  2  3  2  0
  2  4  1  0
  4  5  1  0
  5  6  1  0
  6 12  2  0
  6  7  1  0
  7  8  2  0
  8  9  1  0
  9 10  1  0
  9 11  2  0
 11 12  1  0
 12 13  1  0
 13 14  1  0
 14 19  1  0
 14 15  1  0
 15 16  1  0
 16 17  1  0
 17 18  1  0
 18 19  1  0
 17 20  1  0
 20 21  2  0
 20 22  2  0
 20 23  1  0
 23 24  1  0
 24 29  1  0
 24 25  2  0
 25 26  1  0
 26 27  2  0
 27 28  1  0
 28 29  2  0
M  END
>  <SMILES>  (806) 
O=C(O)COc1ccc(Cl)cc1CN1CCN(S(=O)(=O)Cc2ccccc2)CC1

>  <CollectionName>  (806) 
chembl

>  <LOG PLASMA PROTEIN BINDING (RAT) (% unbound)>  (806) 
1.05728564442

>  <Internal ID>  (806) 


>  <Source>  (806) 
AstraZeneca

$$$$
CHEMBL15023
     RDKit          2D

 29 31  0  0  0  0  0  0  0  0999 V2000
   -0.6420   -0.7667    0.0000 O   0  0  0  0  0  0  0  0  0  0  0  0
    0.0000    0.0000    0.0000 C   0  0  0  0  0  0  0  0  0  0  0  0
   -0.8675    0.4975    0.0000 C   0  0  0  0  0  0  0  0  0  0  0  0
   -0.8675    1.5027    0.0000 C   0  0  0  0  0  0  0  0  0  0  0  0
   -0.0000    2.0104    0.0000 N   0  0  0  0  0  0  0  0  0  0  0  0
   -0.0000    3.0104    0.0000 C   0  0  0  0  0  0  0  0  0  0  0  0
   -0.8660    3.5104    0.0000 C   0  0  0  0  0  0  0  0  0  0  0  0
   -0.8660    4.5104    0.0000 C   0  0  0  0  0  0  0  0  0  0  0  0
   -1.7321    5.0104    0.0000 C   0  0  0  0  0  0  0  0  0  0  0  0
   -2.5981    4.5104    0.0000 O   0  0  0  0  0  0  0  0  0  0  0  0
   -1.7321    6.0104    0.0000 C   0  0  0  0  0  0  0  0  0  0  0  0
   -0.8667    6.5117    0.0000 C   0  0  0  0  0  0  0  0  0  0  0  0
   -0.8624    7.5117    0.0000 C   0  0  0  0  0  0  0  0  0  0  0  0
   -1.7322    8.0156    0.0000 C   0  0  0  0  0  0  0  0  0  0  0  0
   -1.7278    9.0155    0.0000 F   0  0  0  0  0  0  0  0  0  0  0  0
   -2.6063    7.5194    0.0000 C   0  0  0  0  0  0  0  0  0  0  0  0
   -2.6019    6.5143    0.0000 C   0  0  0  0  0  0  0  0  0  0  0  0
    0.8675    1.5027    0.0000 C   0  0  0  0  0  0  0  0  0  0  0  0
    0.8675    0.4975    0.0000 C   0  0  0  0  0  0  0  0  0  0  0  0
    0.6420   -0.7667    0.0000 C   0  0  0  0  0  0  0  0  0  0  0  0
    0.2945   -1.7099    0.0000 C   0  0  0  0  0  0  0  0  0  0  0  0
    0.9366   -2.4766    0.0000 C   0  0  0  0  0  0  0  0  0  0  0  0
    1.9226   -2.3097    0.0000 C   0  0  0  0  0  0  0  0  0  0  0  0
    2.2701   -1.3665    0.0000 C   0  0  0  0  0  0  0  0  0  0  0  0
    1.6316   -0.5902    0.0000 C   0  0  0  0  0  0  0  0  0  0  0  0
    3.2561   -1.1996    0.0000 C   0  0  0  0  0  0  0  0  0  0  0  0
    3.0892   -0.2136    0.0000 F   0  0  0  0  0  0  0  0  0  0  0  0
    3.4229   -2.1856    0.0000 F   0  0  0  0  0  0  0  0  0  0  0  0
    4.2420   -1.0327    0.0000 F   0  0  0  0  0  0  0  0  0  0  0  0
  1  2  1  0
  2 19  1  0
  2  3  1  0
  3  4  1  0
  4  5  1  0
  5  6  1  0
  6  7  1  0
  7  8  1  0
  8  9  1  0
  9 10  2  0
  9 11  1  0
 11 17  1  0
 11 12  2  0
 12 13  1  0
 13 14  2  0
 14 15  1  0
 14 16  1  0
 16 17  2  0
  5 18  1  0
 18 19  1  0
  2 20  1  0
 20 25  1  0
 20 21  2  0
 21 22  1  0
 22 23  2  0
 23 24  1  0
 24 25  2  0
 24 26  1  0
 26 27  1  0
 26 28  1  0
 26 29  1  0
M  END
>  <SMILES>  (807) 
O=C(CCCN1CCC(O)(c2cccc(C(F)(F)F)c2)CC1)c1ccc(F)cc1

>  <CollectionName>  (807) 
chembl

>  <LOG PLASMA PROTEIN BINDING (RAT) (% unbound)>  (807) 
1.03941411918

>  <Internal ID>  (807) 


>  <Source>  (807) 
AstraZeneca

$$$$
CHEMBL95308
     RDKit          2D

 11 11  0  0  0  0  0  0  0  0999 V2000
    1.7335   -1.9975    0.0000 O   0  0  0  0  0  0  0  0  0  0  0  0
    0.8675   -1.4975    0.0000 C   0  0  0  0  0  0  0  0  0  0  0  0
    0.0015   -1.9975    0.0000 O   0  0  0  0  0  0  0  0  0  0  0  0
    0.8675   -0.4975    0.0000 C   0  0  0  0  0  0  0  0  0  0  0  0
    0.0000    0.0000    0.0000 C   0  0  0  0  0  0  0  0  0  0  0  0
    0.0000    1.0052    0.0000 C   0  0  0  0  0  0  0  0  0  0  0  0
   -0.8675    1.5026    0.0000 O   0  0  0  0  0  0  0  0  0  0  0  0
    0.8675    1.5129    0.0000 C   0  0  0  0  0  0  0  0  0  0  0  0
    1.7350    1.0052    0.0000 C   0  0  0  0  0  0  0  0  0  0  0  0
    2.6025    1.5026    0.0000 O   0  0  0  0  0  0  0  0  0  0  0  0
    1.7350   -0.0000    0.0000 C   0  0  0  0  0  0  0  0  0  0  0  0
  1  2  1  0
  2  3  2  0
  2  4  1  0
  4 11  2  0
  4  5  1  0
  5  6  2  0
  6  7  1  0
  6  8  1  0
  8  9  2  0
  9 10  1  0
  9 11  1  0
M  END
>  <SMILES>  (808) 
O=C(O)c1cc(O)cc(O)c1

>  <CollectionName>  (808) 
chembl

>  <LOG PLASMA PROTEIN BINDING (RAT) (% unbound)>  (808) 
1.91587450286

>  <Internal ID>  (808) 


>  <Source>  (808) 
AstraZeneca

$$$$
CHEMBL2181927
     RDKit          2D

 28 30  0  0  1  0  0  0  0  0999 V2000
   -3.4732   -2.9929    0.0000 C   0  0  0  0  0  0  0  0  0  0  0  0
   -3.4742   -1.9929    0.0000 C   0  0  0  0  0  0  0  0  0  0  0  0
   -2.6087   -1.4920    0.0000 O   0  0  0  0  0  0  0  0  0  0  0  0
   -2.6098   -0.4920    0.0000 C   0  0  0  0  0  0  0  0  0  0  0  0
   -3.4805    0.0073    0.0000 N   0  0  0  0  0  0  0  0  0  0  0  0
   -3.4805    1.0162    0.0000 C   0  0  0  0  0  0  0  0  0  0  0  0
   -2.6098    1.5258    0.0000 C   0  0  0  0  0  0  0  0  0  0  0  0
   -2.6098    2.5258    0.0000 C   0  0  0  0  0  0  0  0  0  0  0  0
   -1.7391    1.0162    0.0000 C   0  0  0  0  0  0  0  0  0  0  0  0
   -0.8680    1.5198    0.0000 N   0  0  0  0  0  0  0  0  0  0  0  0
    0.0043    1.0087    0.0000 C   0  0  0  0  0  0  0  0  0  0  0  0
    0.0000    0.0000    0.0000 C   0  0  0  0  0  0  0  0  0  0  0  0
   -0.8766   -0.4980    0.0000 C   0  0  0  0  0  0  0  0  0  0  0  0
   -0.8864   -2.2480    0.0000 C   0  0  0  0  0  0  0  0  0  0  0  0
   -1.7545   -2.7444    0.0000 C   0  0  0  0  0  0  0  0  0  0  0  0
   -1.7644   -3.7444    0.0000 C   0  0  0  0  0  0  0  0  0  0  0  0
   -0.8974   -4.2531    0.0000 C   0  0  0  0  0  0  0  0  0  0  0  0
   -0.0205   -3.7618    0.0000 C   0  0  0  0  0  0  0  0  0  0  0  0
   -0.0194   -2.7567    0.0000 C   0  0  0  0  0  0  0  0  0  0  0  0
    0.8487   -2.2602    0.0000 O   0  0  0  0  0  0  0  0  0  0  0  0
    1.7127   -2.7637    0.0000 C   0  0  0  0  0  0  0  0  0  0  0  0
   -0.9074   -5.2530    0.0000 C   0  0  0  0  0  0  0  0  0  0  0  0
   -0.9174   -6.2530    0.0000 N   0  0  0  0  0  0  0  0  0  0  0  0
   -1.7434    0.0073    0.0000 C   0  0  0  0  0  0  0  0  0  0  0  0
    0.8632   -0.5049    0.0000 C   0  0  0  0  0  0  0  0  0  0  0  0
    0.8576   -1.5048    0.0000 O   0  0  0  0  0  0  0  0  0  0  0  0
    1.7320   -0.0097    0.0000 N   0  0  0  0  0  0  0  0  0  0  0  0
    0.8730    1.5041    0.0000 C   0  0  0  0  0  0  0  0  0  0  0  0
  1  2  1  0
  2  3  1  0
  3  4  1  0
  4 24  2  0
  4  5  1  0
  5  6  2  0
  6  7  1  0
  7  8  1  0
  7  9  2  0
  9 24  1  0
  9 10  1  0
 10 11  1  0
 11 12  2  0
 12 13  1  0
 13 14  1  1
 14 19  1  0
 14 15  2  0
 15 16  1  0
 16 17  2  0
 17 18  1  0
 18 19  2  0
 19 20  1  0
 20 21  1  0
 17 22  1  0
 22 23  3  0
 13 24  1  0
 12 25  1  0
 25 26  2  0
 25 27  1  0
 11 28  1  0
M  END
>  <SMILES>  (809) 
CCOc1ncc(C)c2c1[C@H](c1ccc(C#N)cc1OC)C(C(N)=O)=C(C)N2

>  <CollectionName>  (809) 
chembl

>  <LOG PLASMA PROTEIN BINDING (RAT) (% unbound)>  (809) 
-1.15490195999

>  <Internal ID>  (809) 


>  <Source>  (809) 
AstraZeneca

$$$$
CHEMBL2181928
     RDKit          2D

 24 27  0  0  1  0  0  0  0  0999 V2000
   -1.7264   -3.0051    0.0000 C   0  0  0  0  0  0  0  0  0  0  0  0
   -1.7308   -2.0051    0.0000 C   0  0  0  0  0  0  0  0  0  0  0  0
   -0.8610   -1.5013    0.0000 C   0  0  0  0  0  0  0  0  0  0  0  0
   -0.8653   -0.5013    0.0000 N   0  0  0  0  0  0  0  0  0  0  0  0
   -1.7306    0.0000    0.0000 C   0  0  0  0  0  0  0  0  0  0  0  0
   -2.6004   -0.5038    0.0000 C   0  0  0  0  0  0  0  0  0  0  0  0
   -2.6049   -1.5090    0.0000 O   0  0  0  0  0  0  0  0  0  0  0  0
   -1.7306    1.0000    0.0000 C   0  0  0  0  0  0  0  0  0  0  0  0
   -2.6026    1.5001    0.0000 C   0  0  0  0  0  0  0  0  0  0  0  0
   -2.6027    2.5001    0.0000 C   0  0  0  0  0  0  0  0  0  0  0  0
   -1.7396    3.0052    0.0000 C   0  0  0  0  0  0  0  0  0  0  0  0
   -0.8675    2.5051    0.0000 C   0  0  0  0  0  0  0  0  0  0  0  0
   -0.8587    1.5000    0.0000 C   0  0  0  0  0  0  0  0  0  0  0  0
    0.0000    0.0000    0.0000 C   0  0  0  0  0  0  0  0  0  0  0  0
    0.0000    1.0057    0.0000 C   0  0  0  0  0  0  0  0  0  0  0  0
    0.8680    1.5138    0.0000 C   0  0  0  0  0  0  0  0  0  0  0  0
    1.7374    1.0057    0.0000 C   0  0  0  0  0  0  0  0  0  0  0  0
    2.6052    1.5109    0.0000 O   0  0  0  0  0  0  0  0  0  0  0  0
    3.4774    1.0034    0.0000 C   0  0  0  0  0  0  0  0  0  0  0  0
    3.4761   -0.0036    0.0000 C   0  0  0  0  0  0  0  0  0  0  0  0
    4.3408   -0.5059    0.0000 O   0  0  0  0  0  0  0  0  0  0  0  0
    2.6026   -0.5032    0.0000 N   0  0  0  0  0  0  0  0  0  0  0  0
    1.7360   -0.0012    0.0000 C   0  0  0  0  0  0  0  0  0  0  0  0
    0.8680   -0.4978    0.0000 N   0  0  0  0  0  0  0  0  0  0  0  0
  2  1  1  1
  2  7  1  0
  2  3  1  0
  3  4  1  0
  4  5  1  0
  5  6  1  0
  6  7  1  0
  5  8  1  1
  8 13  1  0
  8  9  2  0
  9 10  1  0
 10 11  2  0
 11 12  1  0
 12 13  2  0
  4 14  1  0
 14 24  1  0
 14 15  2  0
 15 16  1  0
 16 17  2  0
 17 23  1  0
 17 18  1  0
 18 19  1  0
 19 20  1  0
 20 21  2  0
 20 22  1  0
 22 23  1  0
 23 24  2  0
M  END
>  <SMILES>  (810) 
C[C@@H]1CN(c2ccc3c(n2)NC(=O)CO3)[C@H](c2ccccc2)CO1

>  <CollectionName>  (810) 
chembl

>  <LOG PLASMA PROTEIN BINDING (RAT) (% unbound)>  (810) 
0.967547976219

>  <Internal ID>  (810) 


>  <Source>  (810) 
AstraZeneca

$$$$
CHEMBL13817
     RDKit          2D

 37 40  0  0  1  0  0  0  0  0999 V2000
    1.1043   -3.9725    0.0000 C   0  0  0  0  0  0  0  0  0  0  0  0
    0.1047   -3.9986    0.0000 C   0  0  0  0  0  0  0  0  0  0  0  0
    0.1308   -4.9983    0.0000 C   0  0  0  0  0  0  0  0  0  0  0  0
   -0.8950   -4.0248    0.0000 N   0  0  0  0  0  0  0  0  0  0  0  0
    0.0785   -2.9990    0.0000 C   0  0  0  0  0  0  0  0  0  0  0  0
    0.9312   -2.4765    0.0000 O   0  0  0  0  0  0  0  0  0  0  0  0
   -0.8003   -2.5218    0.0000 N   0  0  0  0  0  0  0  0  0  0  0  0
   -0.8265   -1.5221    0.0000 C   0  0  0  0  0  0  0  0  0  0  0  0
   -1.7053   -1.0450    0.0000 C   0  0  0  0  0  0  0  0  0  0  0  0
   -1.7315   -0.0453    0.0000 O   0  0  0  0  0  0  0  0  0  0  0  0
   -2.6103    0.4318    0.0000 C   0  0  0  0  0  0  0  0  0  0  0  0
   -3.4629   -0.0907    0.0000 C   0  0  0  0  0  0  0  0  0  0  0  0
   -4.3449    0.3916    0.0000 C   0  0  0  0  0  0  0  0  0  0  0  0
   -5.1976   -0.1309    0.0000 C   0  0  0  0  0  0  0  0  0  0  0  0
   -5.1773   -1.1307    0.0000 C   0  0  0  0  0  0  0  0  0  0  0  0
   -4.2953   -1.6129    0.0000 C   0  0  0  0  0  0  0  0  0  0  0  0
   -3.4336   -1.0954    0.0000 C   0  0  0  0  0  0  0  0  0  0  0  0
    0.0262   -0.9997    0.0000 C   0  0  0  0  0  0  0  0  0  0  0  0
    0.9050   -1.4768    0.0000 O   0  0  0  0  0  0  0  0  0  0  0  0
    0.0000    0.0000    0.0000 N   0  0  0  0  0  0  0  0  0  0  0  0
    0.8518    0.5506    0.0000 C   0  0  0  0  0  0  0  0  0  0  0  0
    0.8424    1.5813    0.0000 C   0  0  0  0  0  0  0  0  0  0  0  0
   -0.0189    2.0895    0.0000 C   0  0  0  0  0  0  0  0  0  0  0  0
   -0.8847    1.5813    0.0000 C   0  0  0  0  0  0  0  0  0  0  0  0
   -0.8847    0.5083    0.0000 C   0  0  0  0  0  0  0  0  0  0  0  0
   -0.8424    2.6826    0.0000 C   0  0  0  0  0  0  0  0  0  0  0  0
   -0.5225    3.6897    0.0000 N   0  0  0  0  0  0  0  0  0  0  0  0
    0.4942    3.6756    0.0000 C   0  0  0  0  0  0  0  0  0  0  0  0
    1.1812    4.4332    0.0000 C   0  0  0  0  0  0  0  0  0  0  0  0
    2.1978    4.2074    0.0000 C   0  0  0  0  0  0  0  0  0  0  0  0
    2.5037    3.2379    0.0000 C   0  0  0  0  0  0  0  0  0  0  0  0
    1.8072    2.4849    0.0000 C   0  0  0  0  0  0  0  0  0  0  0  0
    0.7907    2.6966    0.0000 C   0  0  0  0  0  0  0  0  0  0  0  0
   -1.1073    4.5009    0.0000 S   0  0  0  0  0  0  0  0  0  0  0  0
   -0.2962    5.0857    0.0000 O   0  0  0  0  0  0  0  0  0  0  0  0
   -1.9185    3.9160    0.0000 O   0  0  0  0  0  0  0  0  0  0  0  0
   -1.6922    5.3120    0.0000 C   0  0  0  0  0  0  0  0  0  0  0  0
  1  2  1  0
  2  3  1  0
  2  4  1  0
  2  5  1  0
  5  6  2  0
  5  7  1  0
  7  8  1  0
  8  9  1  6
  9 10  1  0
 10 11  1  0
 11 12  1  0
 12 17  1  0
 12 13  2  0
 13 14  1  0
 14 15  2  0
 15 16  1  0
 16 17  2  0
  8 18  1  0
 18 19  2  0
 18 20  1  0
 20 25  1  0
 20 21  1  0
 21 22  1  0
 22 23  1  0
 23 33  1  0
 23 24  1  0
 24 25  1  0
 23 26  1  0
 26 27  1  0
 27 28  1  0
 28 33  2  0
 28 29  1  0
 29 30  2  0
 30 31  1  0
 31 32  2  0
 32 33  1  0
 27 34  1  0
 34 35  2  0
 34 36  2  0
 34 37  1  0
M  END
>  <SMILES>  (811) 
CC(C)(N)C(=O)N[C@H](COCc1ccccc1)C(=O)N1CCC2(CC1)CN(S(C)(=O)=O)c1ccccc12

>  <CollectionName>  (811) 
chembl

>  <LOG PLASMA PROTEIN BINDING (RAT) (% unbound)>  (811) 
1.40329214516

>  <Internal ID>  (811) 


>  <Source>  (811) 
AstraZeneca

$$$$
CHEMBL412142
     RDKit          2D

 32 35  0  0  0  0  0  0  0  0999 V2000
    8.6545    6.7416    0.0000 C   0  0  0  0  0  0  0  0  0  0  0  0
    7.6596    6.8428    0.0000 C   0  0  0  0  0  0  0  0  0  0  0  0
    7.1594    7.7087    0.0000 C   0  0  0  0  0  0  0  0  0  0  0  0
    6.1804    7.4977    0.0000 N   0  0  0  0  0  0  0  0  0  0  0  0
    6.0762    6.5015    0.0000 C   0  0  0  0  0  0  0  0  0  0  0  0
    6.9950    6.0951    0.0000 N   0  0  0  0  0  0  0  0  0  0  0  0
    5.2109    6.0002    0.0000 C   0  0  0  0  0  0  0  0  0  0  0  0
    5.2109    4.9950    0.0000 C   0  0  0  0  0  0  0  0  0  0  0  0
    4.3434    4.4873    0.0000 N   0  0  0  0  0  0  0  0  0  0  0  0
    3.4759    4.9950    0.0000 C   0  0  0  0  0  0  0  0  0  0  0  0
    2.6084    4.4976    0.0000 N   0  0  0  0  0  0  0  0  0  0  0  0
    2.6054    3.4976    0.0000 C   0  0  0  0  0  0  0  0  0  0  0  0
    1.7379    3.0001    0.0000 C   0  0  0  0  0  0  0  0  0  0  0  0
    1.7350    2.0001    0.0000 N   0  0  0  0  0  0  0  0  0  0  0  0
    0.8675    1.5027    0.0000 C   0  0  0  0  0  0  0  0  0  0  0  0
    0.8675    0.4975    0.0000 C   0  0  0  0  0  0  0  0  0  0  0  0
    0.0000    0.0000    0.0000 C   0  0  0  0  0  0  0  0  0  0  0  0
   -0.8675    0.4975    0.0000 C   0  0  0  0  0  0  0  0  0  0  0  0
   -0.8675    1.5027    0.0000 C   0  0  0  0  0  0  0  0  0  0  0  0
    0.0000    2.0104    0.0000 N   0  0  0  0  0  0  0  0  0  0  0  0
   -1.7328   -0.0038    0.0000 C   0  0  0  0  0  0  0  0  0  0  0  0
   -2.5981   -0.5050    0.0000 N   0  0  0  0  0  0  0  0  0  0  0  0
    3.4759    6.0002    0.0000 N   0  0  0  0  0  0  0  0  0  0  0  0
    4.3434    6.4977    0.0000 C   0  0  0  0  0  0  0  0  0  0  0  0
    4.3434    7.4977    0.0000 C   0  0  0  0  0  0  0  0  0  0  0  0
    5.2087    7.9990    0.0000 C   0  0  0  0  0  0  0  0  0  0  0  0
    5.2131    8.9990    0.0000 C   0  0  0  0  0  0  0  0  0  0  0  0
    4.3433    9.5029    0.0000 C   0  0  0  0  0  0  0  0  0  0  0  0
    4.3477   10.5029    0.0000 Cl  0  0  0  0  0  0  0  0  0  0  0  0
    3.4691    9.0067    0.0000 C   0  0  0  0  0  0  0  0  0  0  0  0
    3.4736    8.0016    0.0000 C   0  0  0  0  0  0  0  0  0  0  0  0
    2.6083    7.5003    0.0000 Cl  0  0  0  0  0  0  0  0  0  0  0  0
  1  2  1  0
  2  6  1  0
  2  3  2  0
  3  4  1  0
  4  5  1  0
  5  6  2  0
  5  7  1  0
  7 24  1  0
  7  8  2  0
  8  9  1  0
  9 10  2  0
 10 11  1  0
 11 12  1  0
 12 13  1  0
 13 14  1  0
 14 15  1  0
 15 20  1  0
 15 16  2  0
 16 17  1  0
 17 18  2  0
 18 19  1  0
 19 20  2  0
 18 21  1  0
 21 22  3  0
 10 23  1  0
 23 24  2  0
 24 25  1  0
 25 31  1  0
 25 26  2  0
 26 27  1  0
 27 28  2  0
 28 29  1  0
 28 30  1  0
 30 31  2  0
 31 32  1  0
M  END
>  <SMILES>  (812) 
Cc1c[nH]c(-c2cnc(NCCNc3ccc(C#N)cn3)nc2-c2ccc(Cl)cc2Cl)n1

>  <CollectionName>  (812) 
chembl

>  <LOG PLASMA PROTEIN BINDING (RAT) (% unbound)>  (812) 
0.650307523132

>  <Internal ID>  (812) 


>  <Source>  (812) 
AstraZeneca

$$$$
CHEMBL422649
     RDKit          2D

 25 26  0  0  1  0  0  0  0  0999 V2000
    7.3071    0.6403    0.0000 C   0  0  0  0  0  0  0  0  0  0  0  0
    7.8045    1.5078    0.0000 C   0  0  0  0  0  0  0  0  0  0  0  0
    8.3020    2.3752    0.0000 O   0  0  0  0  0  0  0  0  0  0  0  0
    6.9370    2.0052    0.0000 C   0  0  0  0  0  0  0  0  0  0  0  0
    6.9341    3.0052    0.0000 O   0  0  0  0  0  0  0  0  0  0  0  0
    6.0725    1.5026    0.0000 N   0  0  0  0  0  0  0  0  0  0  0  0
    5.2050    2.0001    0.0000 C   0  0  0  0  0  0  0  0  0  0  0  0
    5.2050    3.0053    0.0000 C   0  0  0  0  0  0  0  0  0  0  0  0
    4.3375    3.5028    0.0000 C   0  0  0  0  0  0  0  0  0  0  0  0
    3.4700    3.0053    0.0000 C   0  0  0  0  0  0  0  0  0  0  0  0
    3.4700    2.0001    0.0000 C   0  0  0  0  0  0  0  0  0  0  0  0
    4.3375    1.4924    0.0000 C   0  0  0  0  0  0  0  0  0  0  0  0
    2.6025    1.5026    0.0000 S   0  0  0  0  0  0  0  0  0  0  0  0
    2.1051    2.3701    0.0000 O   0  0  0  0  0  0  0  0  0  0  0  0
    3.0999    0.6351    0.0000 O   0  0  0  0  0  0  0  0  0  0  0  0
    1.7350    1.0052    0.0000 C   0  0  0  0  0  0  0  0  0  0  0  0
    1.7350   -0.0000    0.0000 C   0  0  0  0  0  0  0  0  0  0  0  0
    0.8675   -0.4975    0.0000 C   0  0  0  0  0  0  0  0  0  0  0  0
    0.0000    0.0000    0.0000 C   0  0  0  0  0  0  0  0  0  0  0  0
    0.0000    1.0052    0.0000 C   0  0  0  0  0  0  0  0  0  0  0  0
    0.8675    1.5129    0.0000 C   0  0  0  0  0  0  0  0  0  0  0  0
    8.6720    1.0103    0.0000 C   0  0  0  0  0  0  0  0  0  0  0  0
    9.1695    1.8778    0.0000 F   0  0  0  0  0  0  0  0  0  0  0  0
    8.1746    0.1428    0.0000 F   0  0  0  0  0  0  0  0  0  0  0  0
    9.5395    0.5129    0.0000 F   0  0  0  0  0  0  0  0  0  0  0  0
  1  2  1  0
  2  3  1  0
  2  4  1  0
  4  5  2  0
  4  6  1  0
  6  7  1  0
  7 12  2  0
  7  8  1  0
  8  9  2  0
  9 10  1  0
 10 11  2  0
 11 12  1  0
 11 13  1  0
 13 14  2  0
 13 15  2  0
 13 16  1  0
 16 21  1  0
 16 17  2  0
 17 18  1  0
 18 19  2  0
 19 20  1  0
 20 21  2  0
  2 22  1  0
 22 23  1  0
 22 24  1  0
 22 25  1  0
M  END
>  <SMILES>  (813) 
CC(O)(C(=O)Nc1cccc(S(=O)(=O)c2ccccc2)c1)C(F)(F)F

>  <CollectionName>  (813) 
chembl

>  <LOG PLASMA PROTEIN BINDING (RAT) (% unbound)>  (813) 
0.773786444981

>  <Internal ID>  (813) 


>  <Source>  (813) 
AstraZeneca

$$$$
CHEMBL1322893
     RDKit          2D

 21 23  0  0  0  0  0  0  0  0999 V2000
    1.3946    5.1078    0.0000 C   0  0  0  0  0  0  0  0  0  0  0  0
    0.8067    5.9168    0.0000 O   0  0  0  0  0  0  0  0  0  0  0  0
   -0.1878    5.8121    0.0000 C   0  0  0  0  0  0  0  0  0  0  0  0
   -0.7764    6.6269    0.0000 C   0  0  0  0  0  0  0  0  0  0  0  0
   -1.7750    6.5129    0.0000 C   0  0  0  0  0  0  0  0  0  0  0  0
   -2.1810    5.5934    0.0000 C   0  0  0  0  0  0  0  0  0  0  0  0
   -1.5884    4.7878    0.0000 C   0  0  0  0  0  0  0  0  0  0  0  0
   -0.5939    4.8926    0.0000 C   0  0  0  0  0  0  0  0  0  0  0  0
   -0.0048    4.0845    0.0000 C   0  0  0  0  0  0  0  0  0  0  0  0
    0.9953    4.0848    0.0000 C   0  0  0  0  0  0  0  0  0  0  0  0
    1.3106    3.1353    0.0000 S   0  0  0  0  0  0  0  0  0  0  0  0
    0.4993    2.5428    0.0000 C   0  0  0  0  0  0  0  0  0  0  0  0
   -0.3114    3.1311    0.0000 N   0  0  0  0  0  0  0  0  0  0  0  0
    0.5008    1.5428    0.0000 N   0  0  0  0  0  0  0  0  0  0  0  0
    1.3133    0.9519    0.0000 N   0  0  0  0  0  0  0  0  0  0  0  0
    1.0015    0.0000    0.0000 C   0  0  0  0  0  0  0  0  0  0  0  0
    0.0000    0.0000    0.0000 C   0  0  0  0  0  0  0  0  0  0  0  0
   -0.5889   -0.8082    0.0000 C   0  0  0  0  0  0  0  0  0  0  0  0
   -1.1777   -1.6165    0.0000 N   0  0  0  0  0  0  0  0  0  0  0  0
   -0.3065    0.9519    0.0000 C   0  0  0  0  0  0  0  0  0  0  0  0
   -1.2577    1.2605    0.0000 N   0  0  0  0  0  0  0  0  0  0  0  0
  1  2  1  0
  2  3  1  0
  3  8  2  0
  3  4  1  0
  4  5  2  0
  5  6  1  0
  6  7  2  0
  7  8  1  0
  8  9  1  0
  9 13  1  0
  9 10  2  0
 10 11  1  0
 11 12  1  0
 12 13  2  0
 12 14  1  0
 14 20  1  0
 14 15  1  0
 15 16  2  0
 16 17  1  0
 17 18  1  0
 18 19  3  0
 17 20  2  0
 20 21  1  0
M  END
>  <SMILES>  (814) 
COc1ccccc1-c1csc(-n2ncc(C#N)c2N)n1

>  <CollectionName>  (814) 
chembl

>  <LOG PLASMA PROTEIN BINDING (RAT) (% unbound)>  (814) 
1.72329144648

>  <Internal ID>  (814) 


>  <Source>  (814) 
AstraZeneca

$$$$
CHEMBL2152522
     RDKit          2D

 26 29  0  0  1  0  0  0  0  0999 V2000
    0.8660    6.5208    0.0000 C   0  0  0  0  0  0  0  0  0  0  0  0
    1.7335    6.0233    0.0000 C   0  0  0  0  0  0  0  0  0  0  0  0
    1.7335    5.0181    0.0000 C   0  0  0  0  0  0  0  0  0  0  0  0
    0.8660    4.5104    0.0000 N   0  0  0  0  0  0  0  0  0  0  0  0
   -0.0015    5.0181    0.0000 C   0  0  0  0  0  0  0  0  0  0  0  0
   -0.0015    6.0233    0.0000 C   0  0  0  0  0  0  0  0  0  0  0  0
    0.8660    3.5104    0.0000 C   0  0  0  0  0  0  0  0  0  0  0  0
   -0.0000    3.0104    0.0000 C   0  0  0  0  0  0  0  0  0  0  0  0
   -0.0000    2.0104    0.0000 N   0  0  0  0  0  0  0  0  0  0  0  0
   -0.8675    1.5027    0.0000 C   0  0  0  0  0  0  0  0  0  0  0  0
   -0.8675    0.4975    0.0000 C   0  0  0  0  0  0  0  0  0  0  0  0
    0.0000    0.0000    0.0000 C   0  0  0  0  0  0  0  0  0  0  0  0
    0.8675    0.4975    0.0000 C   0  0  0  0  0  0  0  0  0  0  0  0
    0.8675    1.5027    0.0000 C   0  0  0  0  0  0  0  0  0  0  0  0
   -0.8660    3.5104    0.0000 C   0  0  0  0  0  0  0  0  0  0  0  0
   -1.7351    3.0052    0.0000 C   0  0  0  0  0  0  0  0  0  0  0  0
   -2.6011    3.5052    0.0000 C   0  0  0  0  0  0  0  0  0  0  0  0
   -2.6070    4.5052    0.0000 C   0  0  0  0  0  0  0  0  0  0  0  0
   -1.7380    5.0104    0.0000 C   0  0  0  0  0  0  0  0  0  0  0  0
   -0.8631    4.5155    0.0000 C   0  0  0  0  0  0  0  0  0  0  0  0
    1.7321    3.0104    0.0000 C   0  0  0  0  0  0  0  0  0  0  0  0
    2.6011    3.5156    0.0000 C   0  0  0  0  0  0  0  0  0  0  0  0
    3.4672    3.0156    0.0000 C   0  0  0  0  0  0  0  0  0  0  0  0
    3.4730    2.0156    0.0000 C   0  0  0  0  0  0  0  0  0  0  0  0
    2.6040    1.5104    0.0000 C   0  0  0  0  0  0  0  0  0  0  0  0
    1.7291    2.0053    0.0000 C   0  0  0  0  0  0  0  0  0  0  0  0
  1  6  1  0
  1  2  1  0
  2  3  1  0
  3  4  1  0
  4  5  1  0
  5  6  1  0
  7  4  1  1
  7  8  1  0
  8  9  1  1
  9 14  1  0
  9 10  1  0
 10 11  1  0
 11 12  1  0
 12 13  1  0
 13 14  1  0
  8 15  1  0
 15 20  1  0
 15 16  2  0
 16 17  1  0
 17 18  2  0
 18 19  1  0
 19 20  2  0
  7 21  1  0
 21 26  1  0
 21 22  2  0
 22 23  1  0
 23 24  2  0
 24 25  1  0
 25 26  2  0
M  END
>  <SMILES>  (815) 
c1ccc([C@@H]([C@H](c2ccccc2)N2CCCCC2)N2CCCCC2)cc1

>  <CollectionName>  (815) 
chembl

>  <LOG PLASMA PROTEIN BINDING (RAT) (% unbound)>  (815) 
1.50338206347

>  <Internal ID>  (815) 


>  <Source>  (815) 
AstraZeneca

$$$$
CHEMBL2152524
     RDKit          2D

 24 27  0  0  1  0  0  0  0  0999 V2000
    1.8638    5.5869    0.0000 C   0  0  0  0  0  0  0  0  0  0  0  0
    0.8623    5.5869    0.0000 C   0  0  0  0  0  0  0  0  0  0  0  0
    0.5505    4.6350    0.0000 C   0  0  0  0  0  0  0  0  0  0  0  0
    1.3630    4.0441    0.0000 N   0  0  0  0  0  0  0  0  0  0  0  0
    2.1703    4.6350    0.0000 C   0  0  0  0  0  0  0  0  0  0  0  0
    1.3645    3.0441    0.0000 C   0  0  0  0  0  0  0  0  0  0  0  0
    0.4993    2.5428    0.0000 C   0  0  0  0  0  0  0  0  0  0  0  0
    0.5008    1.5428    0.0000 N   0  0  0  0  0  0  0  0  0  0  0  0
   -0.3065    0.9519    0.0000 C   0  0  0  0  0  0  0  0  0  0  0  0
    0.0000    0.0000    0.0000 C   0  0  0  0  0  0  0  0  0  0  0  0
    1.0015    0.0000    0.0000 C   0  0  0  0  0  0  0  0  0  0  0  0
    1.3133    0.9519    0.0000 C   0  0  0  0  0  0  0  0  0  0  0  0
   -0.3675    3.0415    0.0000 C   0  0  0  0  0  0  0  0  0  0  0  0
   -1.2358    2.5350    0.0000 C   0  0  0  0  0  0  0  0  0  0  0  0
   -2.1026    3.0336    0.0000 C   0  0  0  0  0  0  0  0  0  0  0  0
   -2.1100    4.0336    0.0000 C   0  0  0  0  0  0  0  0  0  0  0  0
   -1.2417    4.5401    0.0000 C   0  0  0  0  0  0  0  0  0  0  0  0
   -0.3661    4.0466    0.0000 C   0  0  0  0  0  0  0  0  0  0  0  0
    2.2313    2.5454    0.0000 C   0  0  0  0  0  0  0  0  0  0  0  0
    3.0996    3.0519    0.0000 C   0  0  0  0  0  0  0  0  0  0  0  0
    3.9664    2.5533    0.0000 C   0  0  0  0  0  0  0  0  0  0  0  0
    3.9738    1.5533    0.0000 C   0  0  0  0  0  0  0  0  0  0  0  0
    3.1055    1.0468    0.0000 C   0  0  0  0  0  0  0  0  0  0  0  0
    2.2299    1.5403    0.0000 C   0  0  0  0  0  0  0  0  0  0  0  0
  1  5  1  0
  1  2  1  0
  2  3  1  0
  3  4  1  0
  4  5  1  0
  6  4  1  1
  6  7  1  0
  7  8  1  1
  8 12  1  0
  8  9  1  0
  9 10  1  0
 10 11  1  0
 11 12  1  0
  7 13  1  0
 13 18  1  0
 13 14  2  0
 14 15  1  0
 15 16  2  0
 16 17  1  0
 17 18  2  0
  6 19  1  0
 19 24  1  0
 19 20  2  0
 20 21  1  0
 21 22  2  0
 22 23  1  0
 23 24  2  0
M  END
>  <SMILES>  (816) 
c1ccc([C@@H]([C@H](c2ccccc2)N2CCCC2)N2CCCC2)cc1

>  <CollectionName>  (816) 
chembl

>  <LOG PLASMA PROTEIN BINDING (RAT) (% unbound)>  (816) 
1.51693180887

>  <Internal ID>  (816) 


>  <Source>  (816) 
AstraZeneca

$$$$
CHEMBL2158436
     RDKit          2D

 25 28  0  0  0  0  0  0  0  0999 V2000
   -0.8675    1.5026    0.0000 O   0  0  0  0  0  0  0  0  0  0  0  0
    0.0000    1.0052    0.0000 C   0  0  0  0  0  0  0  0  0  0  0  0
    0.8675    1.5129    0.0000 N   0  0  0  0  0  0  0  0  0  0  0  0
    1.7350    1.0052    0.0000 C   0  0  0  0  0  0  0  0  0  0  0  0
    1.7350    0.0000    0.0000 N   0  0  0  0  0  0  0  0  0  0  0  0
    0.8675   -0.4975    0.0000 C   0  0  0  0  0  0  0  0  0  0  0  0
    0.0000    0.0000    0.0000 C   0  0  0  0  0  0  0  0  0  0  0  0
    0.8675   -1.4975    0.0000 N   0  0  0  0  0  0  0  0  0  0  0  0
    1.7350   -1.9950    0.0000 C   0  0  0  0  0  0  0  0  0  0  0  0
    1.7350   -3.0002    0.0000 C   0  0  0  0  0  0  0  0  0  0  0  0
    0.8675   -3.5079    0.0000 O   0  0  0  0  0  0  0  0  0  0  0  0
    0.0000   -3.0002    0.0000 C   0  0  0  0  0  0  0  0  0  0  0  0
    0.0000   -1.9950    0.0000 C   0  0  0  0  0  0  0  0  0  0  0  0
    2.6025    1.5026    0.0000 N   0  0  0  0  0  0  0  0  0  0  0  0
    2.6054    2.5026    0.0000 C   0  0  0  0  0  0  0  0  0  0  0  0
    3.4729    3.0001    0.0000 C   0  0  0  0  0  0  0  0  0  0  0  0
    3.4794    4.0077    0.0000 C   0  0  0  0  0  0  0  0  0  0  0  0
    4.3525    4.5068    0.0000 C   0  0  0  0  0  0  0  0  0  0  0  0
    5.2191    3.9982    0.0000 C   0  0  0  0  0  0  0  0  0  0  0  0
    5.2148    2.9982    0.0000 C   0  0  0  0  0  0  0  0  0  0  0  0
    6.0776    2.4894    0.0000 C   0  0  0  0  0  0  0  0  0  0  0  0
    6.0749    1.4889    0.0000 C   0  0  0  0  0  0  0  0  0  0  0  0
    5.2011    0.9910    0.0000 C   0  0  0  0  0  0  0  0  0  0  0  0
    4.3302    1.4936    0.0000 C   0  0  0  0  0  0  0  0  0  0  0  0
    4.3417    2.4991    0.0000 C   0  0  0  0  0  0  0  0  0  0  0  0
  1  2  2  0
  2  7  1  0
  2  3  1  0
  3  4  1  0
  4  5  2  0
  5  6  1  0
  6  7  2  0
  6  8  1  0
  8 13  1  0
  8  9  1  0
  9 10  1  0
 10 11  1  0
 11 12  1  0
 12 13  1  0
  4 14  1  0
 14 15  1  0
 15 16  1  0
 16 25  1  0
 16 17  2  0
 17 18  1  0
 18 19  2  0
 19 20  1  0
 20 25  2  0
 20 21  1  0
 21 22  2  0
 22 23  1  0
 23 24  2  0
 24 25  1  0
M  END
>  <SMILES>  (817) 
O=c1cc(N2CCOCC2)nc(NCc2cccc3ccccc23)[nH]1

>  <CollectionName>  (817) 
chembl

>  <LOG PLASMA PROTEIN BINDING (RAT) (% unbound)>  (817) 
0.399673721481

>  <Internal ID>  (817) 


>  <Source>  (817) 
AstraZeneca

$$$$
CHEMBL2158438
     RDKit          2D

 22 24  0  0  0  0  0  0  0  0999 V2000
    4.3581    5.4975    0.0000 Cl  0  0  0  0  0  0  0  0  0  0  0  0
    4.3493    4.4975    0.0000 C   0  0  0  0  0  0  0  0  0  0  0  0
    5.2168    3.9898    0.0000 C   0  0  0  0  0  0  0  0  0  0  0  0
    5.2080    2.9898    0.0000 C   0  0  0  0  0  0  0  0  0  0  0  0
    4.3405    2.4924    0.0000 C   0  0  0  0  0  0  0  0  0  0  0  0
    3.4729    3.0001    0.0000 C   0  0  0  0  0  0  0  0  0  0  0  0
    2.6054    2.5026    0.0000 C   0  0  0  0  0  0  0  0  0  0  0  0
    2.6025    1.5026    0.0000 N   0  0  0  0  0  0  0  0  0  0  0  0
    1.7350    1.0052    0.0000 C   0  0  0  0  0  0  0  0  0  0  0  0
    1.7350    0.0000    0.0000 N   0  0  0  0  0  0  0  0  0  0  0  0
    0.8675   -0.4975    0.0000 C   0  0  0  0  0  0  0  0  0  0  0  0
    0.0000    0.0000    0.0000 C   0  0  0  0  0  0  0  0  0  0  0  0
    0.0000    1.0052    0.0000 C   0  0  0  0  0  0  0  0  0  0  0  0
   -0.8675    1.5026    0.0000 O   0  0  0  0  0  0  0  0  0  0  0  0
    0.8675    1.5129    0.0000 N   0  0  0  0  0  0  0  0  0  0  0  0
    0.8675   -1.4975    0.0000 N   0  0  0  0  0  0  0  0  0  0  0  0
    1.7350   -1.9950    0.0000 C   0  0  0  0  0  0  0  0  0  0  0  0
    1.7350   -3.0002    0.0000 C   0  0  0  0  0  0  0  0  0  0  0  0
    0.8675   -3.5079    0.0000 O   0  0  0  0  0  0  0  0  0  0  0  0
    0.0000   -3.0002    0.0000 C   0  0  0  0  0  0  0  0  0  0  0  0
    0.0000   -1.9950    0.0000 C   0  0  0  0  0  0  0  0  0  0  0  0
    3.4729    4.0052    0.0000 C   0  0  0  0  0  0  0  0  0  0  0  0
  1  2  1  0
  2 22  2  0
  2  3  1  0
  3  4  2  0
  4  5  1  0
  5  6  2  0
  6  7  1  0
  7  8  1  0
  8  9  1  0
  9 15  1  0
  9 10  2  0
 10 11  1  0
 11 12  2  0
 12 13  1  0
 13 14  2  0
 13 15  1  0
 11 16  1  0
 16 21  1  0
 16 17  1  0
 17 18  1  0
 18 19  1  0
 19 20  1  0
 20 21  1  0
  6 22  1  0
M  END
>  <SMILES>  (818) 
O=c1cc(N2CCOCC2)nc(NCc2cccc(Cl)c2)[nH]1

>  <CollectionName>  (818) 
chembl

>  <LOG PLASMA PROTEIN BINDING (RAT) (% unbound)>  (818) 
0.67851837904

>  <Internal ID>  (818) 


>  <Source>  (818) 
AstraZeneca

$$$$
CHEMBL2164566
     RDKit          2D

 27 29  0  0  0  0  0  0  0  0999 V2000
    4.7856    3.1005    0.0000 C   0  0  0  0  0  0  0  0  0  0  0  0
    4.2857    2.2344    0.0000 C   0  0  0  0  0  0  0  0  0  0  0  0
    4.7857    1.3684    0.0000 N   0  0  0  0  0  0  0  0  0  0  0  0
    5.7857    1.3685    0.0000 C   0  0  0  0  0  0  0  0  0  0  0  0
    6.2858    0.5025    0.0000 C   0  0  0  0  0  0  0  0  0  0  0  0
    7.2858    0.5025    0.0000 O   0  0  0  0  0  0  0  0  0  0  0  0
    4.2858    0.5024    0.0000 C   0  0  0  0  0  0  0  0  0  0  0  0
    4.7859   -0.3636    0.0000 O   0  0  0  0  0  0  0  0  0  0  0  0
    3.2858    0.5023    0.0000 C   0  0  0  0  0  0  0  0  0  0  0  0
    2.6938    1.3169    0.0000 O   0  0  0  0  0  0  0  0  0  0  0  0
    1.7360    1.0058    0.0000 C   0  0  0  0  0  0  0  0  0  0  0  0
    0.8680    1.5138    0.0000 C   0  0  0  0  0  0  0  0  0  0  0  0
    0.0000    1.0058    0.0000 C   0  0  0  0  0  0  0  0  0  0  0  0
    0.0000    0.0000    0.0000 C   0  0  0  0  0  0  0  0  0  0  0  0
    0.8680   -0.4978    0.0000 N   0  0  0  0  0  0  0  0  0  0  0  0
    1.7360   -0.0012    0.0000 C   0  0  0  0  0  0  0  0  0  0  0  0
    2.6938   -0.3125    0.0000 C   0  0  0  0  0  0  0  0  0  0  0  0
    3.0028   -1.2636    0.0000 C   0  0  0  0  0  0  0  0  0  0  0  0
    2.3279   -2.0086    0.0000 C   0  0  0  0  0  0  0  0  0  0  0  0
    2.6369   -2.9597    0.0000 C   0  0  0  0  0  0  0  0  0  0  0  0
    3.6138   -3.1734    0.0000 C   0  0  0  0  0  0  0  0  0  0  0  0
    4.2886   -2.4284    0.0000 C   0  0  0  0  0  0  0  0  0  0  0  0
    3.9866   -1.4697    0.0000 C   0  0  0  0  0  0  0  0  0  0  0  0
    5.2655   -2.6421    0.0000 C   0  0  0  0  0  0  0  0  0  0  0  0
    5.4793   -1.6652    0.0000 F   0  0  0  0  0  0  0  0  0  0  0  0
    5.0518   -3.6190    0.0000 F   0  0  0  0  0  0  0  0  0  0  0  0
    6.2424   -2.8558    0.0000 F   0  0  0  0  0  0  0  0  0  0  0  0
  1  2  1  0
  2  3  1  0
  3  4  1  0
  4  5  1  0
  5  6  1  0
  3  7  1  0
  7  8  2  0
  7  9  1  0
  9 17  2  0
  9 10  1  0
 10 11  1  0
 11 16  2  0
 11 12  1  0
 12 13  2  0
 13 14  1  0
 14 15  2  0
 15 16  1  0
 16 17  1  0
 17 18  1  0
 18 23  1  0
 18 19  2  0
 19 20  1  0
 20 21  2  0
 21 22  1  0
 22 23  2  0
 22 24  1  0
 24 25  1  0
 24 26  1  0
 24 27  1  0
M  END
>  <SMILES>  (819) 
CCN(CCO)C(=O)c1oc2cccnc2c1-c1cccc(C(F)(F)F)c1

>  <CollectionName>  (819) 
chembl

>  <LOG PLASMA PROTEIN BINDING (RAT) (% unbound)>  (819) 
1.14457420761

>  <Internal ID>  (819) 


>  <Source>  (819) 
AstraZeneca

$$$$
CHEMBL2165257
     RDKit          2D

 19 21  0  0  0  0  0  0  0  0999 V2000
    7.2909    0.4892    0.0000 C   0  0  0  0  0  0  0  0  0  0  0  0
    6.2909    0.4935    0.0000 C   0  0  0  0  0  0  0  0  0  0  0  0
    5.7859   -0.3696    0.0000 C   0  0  0  0  0  0  0  0  0  0  0  0
    6.2834   -1.2371    0.0000 O   0  0  0  0  0  0  0  0  0  0  0  0
    4.7859   -0.3696    0.0000 C   0  0  0  0  0  0  0  0  0  0  0  0
    4.2858    0.5024    0.0000 C   0  0  0  0  0  0  0  0  0  0  0  0
    4.7858    1.3743    0.0000 O   0  0  0  0  0  0  0  0  0  0  0  0
    5.7909    1.3655    0.0000 C   0  0  0  0  0  0  0  0  0  0  0  0
    6.2959    2.2286    0.0000 O   0  0  0  0  0  0  0  0  0  0  0  0
    3.2858    0.5023    0.0000 C   0  0  0  0  0  0  0  0  0  0  0  0
    2.6938    1.3169    0.0000 O   0  0  0  0  0  0  0  0  0  0  0  0
    1.7360    1.0058    0.0000 C   0  0  0  0  0  0  0  0  0  0  0  0
    0.8680    1.5138    0.0000 C   0  0  0  0  0  0  0  0  0  0  0  0
    0.0000    1.0058    0.0000 C   0  0  0  0  0  0  0  0  0  0  0  0
    0.0000    0.0000    0.0000 C   0  0  0  0  0  0  0  0  0  0  0  0
    0.8680   -0.4978    0.0000 C   0  0  0  0  0  0  0  0  0  0  0  0
    1.7360   -0.0012    0.0000 C   0  0  0  0  0  0  0  0  0  0  0  0
    2.6938   -0.3125    0.0000 C   0  0  0  0  0  0  0  0  0  0  0  0
    4.2846   -1.2349    0.0000 C   0  0  0  0  0  0  0  0  0  0  0  0
  1  2  1  0
  2  8  1  0
  2  3  2  0
  3  4  1  0
  3  5  1  0
  5  6  2  0
  6  7  1  0
  7  8  1  0
  8  9  2  0
  6 10  1  0
 10 18  2  0
 10 11  1  0
 11 12  1  0
 12 17  2  0
 12 13  1  0
 13 14  2  0
 14 15  1  0
 15 16  2  0
 16 17  1  0
 17 18  1  0
  5 19  1  0
M  END
>  <SMILES>  (820) 
Cc1c(-c2cc3ccccc3o2)oc(=O)c(C)c1O

>  <CollectionName>  (820) 
chembl

>  <LOG PLASMA PROTEIN BINDING (RAT) (% unbound)>  (820) 
-0.585026652029

>  <Internal ID>  (820) 


>  <Source>  (820) 
AstraZeneca

$$$$
CHEMBL2178388
     RDKit          2D

 29 31  0  0  1  0  0  0  0  0999 V2000
   -0.8653   -0.5013    0.0000 C   0  0  0  0  0  0  0  0  0  0  0  0
    0.0000    0.0000    0.0000 C   0  0  0  0  0  0  0  0  0  0  0  0
    0.8675   -0.4975    0.0000 N   0  0  0  0  0  0  0  0  0  0  0  0
    1.7350    0.0000    0.0000 C   0  0  0  0  0  0  0  0  0  0  0  0
    2.6003   -0.5013    0.0000 C   0  0  0  0  0  0  0  0  0  0  0  0
    3.4670   -0.0025    0.0000 F   0  0  0  0  0  0  0  0  0  0  0  0
    2.5988   -1.5013    0.0000 F   0  0  0  0  0  0  0  0  0  0  0  0
    1.7350    1.0052    0.0000 C   0  0  0  0  0  0  0  0  0  0  0  0
    0.8675    1.5129    0.0000 N   0  0  0  0  0  0  0  0  0  0  0  0
    0.0000    1.0052    0.0000 C   0  0  0  0  0  0  0  0  0  0  0  0
   -0.8675    1.5026    0.0000 C   0  0  0  0  0  0  0  0  0  0  0  0
   -0.8719    2.5027    0.0000 C   0  0  0  0  0  0  0  0  0  0  0  0
   -1.7372    3.0039    0.0000 C   0  0  0  0  0  0  0  0  0  0  0  0
   -2.6070    2.5000    0.0000 C   0  0  0  0  0  0  0  0  0  0  0  0
   -2.6114    1.4949    0.0000 C   0  0  0  0  0  0  0  0  0  0  0  0
   -1.7373    0.9987    0.0000 C   0  0  0  0  0  0  0  0  0  0  0  0
   -3.4723    3.0012    0.0000 C   0  0  0  0  0  0  0  0  0  0  0  0
   -4.3421    2.4973    0.0000 C   0  0  0  0  0  0  0  0  0  0  0  0
   -5.2074    2.9986    0.0000 C   0  0  0  0  0  0  0  0  0  0  0  0
   -5.2118    3.9986    0.0000 C   0  0  0  0  0  0  0  0  0  0  0  0
   -6.0793    4.4960    0.0000 C   0  0  0  0  0  0  0  0  0  0  0  0
   -6.9439    3.9935    0.0000 C   0  0  0  0  0  0  0  0  0  0  0  0
   -6.9409    2.9935    0.0000 O   0  0  0  0  0  0  0  0  0  0  0  0
   -7.8114    4.4909    0.0000 O   0  0  0  0  0  0  0  0  0  0  0  0
   -4.3421    4.5025    0.0000 C   0  0  0  0  0  0  0  0  0  0  0  0
   -3.4679    4.0064    0.0000 C   0  0  0  0  0  0  0  0  0  0  0  0
    2.6025    1.5026    0.0000 C   0  0  0  0  0  0  0  0  0  0  0  0
    3.4670    1.0001    0.0000 O   0  0  0  0  0  0  0  0  0  0  0  0
    2.6054    2.5026    0.0000 N   0  0  0  0  0  0  0  0  0  0  0  0
  1  2  1  0
  2 10  2  0
  2  3  1  0
  3  4  2  0
  4  5  1  0
  5  6  1  0
  5  7  1  0
  4  8  1  0
  8  9  2  0
  9 10  1  0
 10 11  1  0
 11 16  1  0
 11 12  2  0
 12 13  1  0
 13 14  2  0
 14 15  1  0
 15 16  2  0
 17 14  1  6
 17 26  1  0
 17 18  1  0
 18 19  1  0
 19 20  1  0
 20 21  1  1
 21 22  1  0
 22 23  2  0
 22 24  1  0
 20 25  1  0
 25 26  1  0
  8 27  1  0
 27 28  2  0
 27 29  1  0
M  END
>  <SMILES>  (821) 
Cc1nc(C(F)F)c(C(N)=O)nc1-c1ccc([C@H]2CC[C@H](CC(=O)O)CC2)cc1

>  <CollectionName>  (821) 
chembl

>  <LOG PLASMA PROTEIN BINDING (RAT) (% unbound)>  (821) 
0.583198773969

>  <Internal ID>  (821) 


>  <Source>  (821) 
AstraZeneca

$$$$
CHEMBL2178933
     RDKit          2D

 26 28  0  0  1  0  0  0  0  0999 V2000
    2.6003   -0.5013    0.0000 C   0  0  0  0  0  0  0  0  0  0  0  0
    1.7350    0.0000    0.0000 C   0  0  0  0  0  0  0  0  0  0  0  0
    0.8675   -0.4975    0.0000 N   0  0  0  0  0  0  0  0  0  0  0  0
    0.0000    0.0000    0.0000 C   0  0  0  0  0  0  0  0  0  0  0  0
   -0.8653   -0.5013    0.0000 C   0  0  0  0  0  0  0  0  0  0  0  0
    0.0000    1.0052    0.0000 C   0  0  0  0  0  0  0  0  0  0  0  0
    0.8675    1.5129    0.0000 N   0  0  0  0  0  0  0  0  0  0  0  0
    1.7350    1.0052    0.0000 C   0  0  0  0  0  0  0  0  0  0  0  0
    2.6025    1.5026    0.0000 C   0  0  0  0  0  0  0  0  0  0  0  0
    3.4670    1.0001    0.0000 O   0  0  0  0  0  0  0  0  0  0  0  0
    2.6054    2.5026    0.0000 N   0  0  0  0  0  0  0  0  0  0  0  0
   -0.8675    1.5026    0.0000 C   0  0  0  0  0  0  0  0  0  0  0  0
   -0.8719    2.5027    0.0000 C   0  0  0  0  0  0  0  0  0  0  0  0
   -1.7372    3.0039    0.0000 C   0  0  0  0  0  0  0  0  0  0  0  0
   -2.6070    2.5000    0.0000 C   0  0  0  0  0  0  0  0  0  0  0  0
   -2.6114    1.4949    0.0000 C   0  0  0  0  0  0  0  0  0  0  0  0
   -1.7373    0.9987    0.0000 C   0  0  0  0  0  0  0  0  0  0  0  0
   -3.4723    3.0012    0.0000 C   0  0  0  0  0  0  0  0  0  0  0  0
   -4.3421    2.4973    0.0000 C   0  0  0  0  0  0  0  0  0  0  0  0
   -5.2074    2.9986    0.0000 C   0  0  0  0  0  0  0  0  0  0  0  0
   -5.2118    3.9986    0.0000 C   0  0  0  0  0  0  0  0  0  0  0  0
   -6.0793    4.4960    0.0000 C   0  0  0  0  0  0  0  0  0  0  0  0
   -6.0823    5.4960    0.0000 C   0  0  0  0  0  0  0  0  0  0  0  0
   -6.9498    5.9935    0.0000 O   0  0  0  0  0  0  0  0  0  0  0  0
   -4.3421    4.5025    0.0000 C   0  0  0  0  0  0  0  0  0  0  0  0
   -3.4679    4.0064    0.0000 C   0  0  0  0  0  0  0  0  0  0  0  0
  1  2  1  0
  2  8  2  0
  2  3  1  0
  3  4  2  0
  4  5  1  0
  4  6  1  0
  6  7  2  0
  7  8  1  0
  8  9  1  0
  9 10  2  0
  9 11  1  0
  6 12  1  0
 12 17  1  0
 12 13  2  0
 13 14  1  0
 14 15  2  0
 15 16  1  0
 16 17  2  0
 18 15  1  6
 18 26  1  0
 18 19  1  0
 19 20  1  0
 20 21  1  0
 21 22  1  1
 22 23  1  0
 23 24  1  0
 21 25  1  0
 25 26  1  0
M  END
>  <SMILES>  (822) 
Cc1nc(C)c(-c2ccc([C@H]3CC[C@H](CCO)CC3)cc2)nc1C(N)=O

>  <CollectionName>  (822) 
chembl

>  <LOG PLASMA PROTEIN BINDING (RAT) (% unbound)>  (822) 
0.143014800254

>  <Internal ID>  (822) 


>  <Source>  (822) 
AstraZeneca

$$$$
CHEMBL2178951
     RDKit          2D

 26 28  0  0  1  0  0  0  0  0999 V2000
    2.6003   -0.5013    0.0000 C   0  0  0  0  0  0  0  0  0  0  0  0
    1.7350    0.0000    0.0000 C   0  0  0  0  0  0  0  0  0  0  0  0
    0.8675   -0.4975    0.0000 N   0  0  0  0  0  0  0  0  0  0  0  0
    0.0000    0.0000    0.0000 C   0  0  0  0  0  0  0  0  0  0  0  0
    0.0000    1.0052    0.0000 C   0  0  0  0  0  0  0  0  0  0  0  0
    0.8675    1.5129    0.0000 N   0  0  0  0  0  0  0  0  0  0  0  0
    1.7350    1.0052    0.0000 C   0  0  0  0  0  0  0  0  0  0  0  0
    2.6025    1.5026    0.0000 C   0  0  0  0  0  0  0  0  0  0  0  0
    3.4678    1.0013    0.0000 C   0  0  0  0  0  0  0  0  0  0  0  0
    4.3375    1.4950    0.0000 C   0  0  0  0  0  0  0  0  0  0  0  0
    4.3419    2.5002    0.0000 C   0  0  0  0  0  0  0  0  0  0  0  0
    3.4766    3.0117    0.0000 C   0  0  0  0  0  0  0  0  0  0  0  0
    2.6069    2.5078    0.0000 C   0  0  0  0  0  0  0  0  0  0  0  0
    5.2116    2.9938    0.0000 C   0  0  0  0  0  0  0  0  0  0  0  0
    5.2160    3.9990    0.0000 C   0  0  0  0  0  0  0  0  0  0  0  0
    6.0857    4.4927    0.0000 C   0  0  0  0  0  0  0  0  0  0  0  0
    6.9510    3.9914    0.0000 C   0  0  0  0  0  0  0  0  0  0  0  0
    7.8185    4.4888    0.0000 C   0  0  0  0  0  0  0  0  0  0  0  0
    7.8214    5.4888    0.0000 C   0  0  0  0  0  0  0  0  0  0  0  0
    6.9569    5.9914    0.0000 O   0  0  0  0  0  0  0  0  0  0  0  0
    8.6889    5.9862    0.0000 O   0  0  0  0  0  0  0  0  0  0  0  0
    6.9466    2.9862    0.0000 C   0  0  0  0  0  0  0  0  0  0  0  0
    6.0768    2.4823    0.0000 C   0  0  0  0  0  0  0  0  0  0  0  0
   -0.8675    1.5026    0.0000 C   0  0  0  0  0  0  0  0  0  0  0  0
   -0.8704    2.5026    0.0000 O   0  0  0  0  0  0  0  0  0  0  0  0
   -1.7320    1.0001    0.0000 N   0  0  0  0  0  0  0  0  0  0  0  0
  1  2  1  0
  2  7  2  0
  2  3  1  0
  3  4  2  0
  4  5  1  0
  5  6  2  0
  6  7  1  0
  7  8  1  0
  8 13  1  0
  8  9  2  0
  9 10  1  0
 10 11  2  0
 11 12  1  0
 12 13  2  0
 14 11  1  6
 14 23  1  0
 14 15  1  0
 15 16  1  0
 16 17  1  0
 17 18  1  1
 18 19  1  0
 19 20  2  0
 19 21  1  0
 17 22  1  0
 22 23  1  0
  5 24  1  0
 24 25  2  0
 24 26  1  0
M  END
>  <SMILES>  (823) 
Cc1ncc(C(N)=O)nc1-c1ccc([C@H]2CC[C@H](CC(=O)O)CC2)cc1

>  <CollectionName>  (823) 
chembl

>  <LOG PLASMA PROTEIN BINDING (RAT) (% unbound)>  (823) 
0.535294120043

>  <Internal ID>  (823) 


>  <Source>  (823) 
AstraZeneca

$$$$
CHEMBL2137199
     RDKit          2D

 37 40  0  0  0  0  0  0  0  0999 V2000
    3.4599  -11.7655    0.0000 O   0  0  0  0  0  0  0  0  0  0  0  0
    3.4599  -10.7655    0.0000 C   0  0  0  0  0  0  0  0  0  0  0  0
    3.4599   -9.0155    0.0000 C   0  0  0  0  0  0  0  0  0  0  0  0
    4.3319   -8.5155    0.0000 C   0  0  0  0  0  0  0  0  0  0  0  0
    4.3319   -7.5154    0.0000 C   0  0  0  0  0  0  0  0  0  0  0  0
    3.4688   -7.0103    0.0000 C   0  0  0  0  0  0  0  0  0  0  0  0
    2.5968   -7.5104    0.0000 C   0  0  0  0  0  0  0  0  0  0  0  0
    1.7338   -7.0053    0.0000 F   0  0  0  0  0  0  0  0  0  0  0  0
    2.5879   -8.5155    0.0000 C   0  0  0  0  0  0  0  0  0  0  0  0
    3.4732   -6.0104    0.0000 C   0  0  0  0  0  0  0  0  0  0  0  0
    2.6034   -5.5065    0.0000 C   0  0  0  0  0  0  0  0  0  0  0  0
    2.6078   -4.5065    0.0000 C   0  0  0  0  0  0  0  0  0  0  0  0
    3.4731   -4.0052    0.0000 C   0  0  0  0  0  0  0  0  0  0  0  0
    3.4731   -3.0052    0.0000 C   0  0  0  0  0  0  0  0  0  0  0  0
    2.6071   -2.5052    0.0000 N   0  0  0  0  0  0  0  0  0  0  0  0
    1.7425   -3.0077    0.0000 C   0  0  0  0  0  0  0  0  0  0  0  0
    0.8720   -2.5051    0.0000 C   0  0  0  0  0  0  0  0  0  0  0  0
    0.8660   -1.5000    0.0000 N   0  0  0  0  0  0  0  0  0  0  0  0
    0.0000   -1.0000    0.0000 C   0  0  0  0  0  0  0  0  0  0  0  0
    0.0000    0.0000    0.0000 C   0  0  0  0  0  0  0  0  0  0  0  0
   -0.8675    0.4975    0.0000 C   0  0  0  0  0  0  0  0  0  0  0  0
   -0.8675    1.5027    0.0000 C   0  0  0  0  0  0  0  0  0  0  0  0
   -0.0000    2.0104    0.0000 N   0  0  0  0  0  0  0  0  0  0  0  0
    0.8675    1.5027    0.0000 C   0  0  0  0  0  0  0  0  0  0  0  0
    0.8675    0.4975    0.0000 C   0  0  0  0  0  0  0  0  0  0  0  0
    1.7395   -1.0026    0.0000 C   0  0  0  0  0  0  0  0  0  0  0  0
    2.6100   -1.5052    0.0000 C   0  0  0  0  0  0  0  0  0  0  0  0
    4.3429   -4.5091    0.0000 C   0  0  0  0  0  0  0  0  0  0  0  0
    4.3474   -5.5142    0.0000 C   0  0  0  0  0  0  0  0  0  0  0  0
    4.4599  -10.7655    0.0000 C   0  0  0  0  0  0  0  0  0  0  0  0
    4.4599   -9.7655    0.0000 F   0  0  0  0  0  0  0  0  0  0  0  0
    4.4599  -11.7655    0.0000 F   0  0  0  0  0  0  0  0  0  0  0  0
    5.4599  -10.7655    0.0000 F   0  0  0  0  0  0  0  0  0  0  0  0
    2.4599  -10.7655    0.0000 C   0  0  0  0  0  0  0  0  0  0  0  0
    2.4599  -11.7655    0.0000 F   0  0  0  0  0  0  0  0  0  0  0  0
    2.4599   -9.7655    0.0000 F   0  0  0  0  0  0  0  0  0  0  0  0
    1.4599  -10.7655    0.0000 F   0  0  0  0  0  0  0  0  0  0  0  0
  1  2  1  0
  2  3  1  0
  3  9  2  0
  3  4  1  0
  4  5  2  0
  5  6  1  0
  6  7  2  0
  7  8  1  0
  7  9  1  0
  6 10  1  0
 10 29  1  0
 10 11  2  0
 11 12  1  0
 12 13  2  0
 13 14  1  0
 14 15  1  0
 15 27  1  0
 15 16  1  0
 16 17  1  0
 17 18  1  0
 18 19  1  0
 19 20  1  0
 20 25  1  0
 20 21  2  0
 21 22  1  0
 22 23  2  0
 23 24  1  0
 24 25  2  0
 18 26  1  0
 26 27  1  0
 13 28  1  0
 28 29  2  0
  2 30  1  0
 30 31  1  0
 30 32  1  0
 30 33  1  0
  2 34  1  0
 34 35  1  0
 34 36  1  0
 34 37  1  0
M  END
>  <SMILES>  (824) 
OC(c1ccc(-c2ccc(CN3CCN(Cc4ccncc4)CC3)cc2)c(F)c1)(C(F)(F)F)C(F)(F)F

>  <CollectionName>  (824) 
chembl

>  <LOG PLASMA PROTEIN BINDING (RAT) (% unbound)>  (824) 
-1.09691001301

>  <Internal ID>  (824) 


>  <Source>  (824) 
AstraZeneca

$$$$
CHEMBL2144069
     RDKit          2D

 34 37  0  0  0  0  0  0  0  0999 V2000
    4.3408   -0.4978    0.0000 C   0  0  0  0  0  0  0  0  0  0  0  0
    3.4748    0.0023    0.0000 N   0  0  0  0  0  0  0  0  0  0  0  0
    3.4735    1.0079    0.0000 C   0  0  0  0  0  0  0  0  0  0  0  0
    2.6012    1.5123    0.0000 N   0  0  0  0  0  0  0  0  0  0  0  0
    1.7358    1.0056    0.0000 C   0  0  0  0  0  0  0  0  0  0  0  0
    0.8679    1.5135    0.0000 C   0  0  0  0  0  0  0  0  0  0  0  0
    0.0000    1.0056    0.0000 C   0  0  0  0  0  0  0  0  0  0  0  0
    0.0000    0.0000    0.0000 C   0  0  0  0  0  0  0  0  0  0  0  0
   -0.8653   -0.5013    0.0000 N   0  0  0  0  0  0  0  0  0  0  0  0
   -0.8638   -1.5013    0.0000 C   0  0  0  0  0  0  0  0  0  0  0  0
   -1.7351   -2.0025    0.0000 C   0  0  0  0  0  0  0  0  0  0  0  0
   -1.7247   -3.0076    0.0000 C   0  0  0  0  0  0  0  0  0  0  0  0
   -2.5870   -3.5140    0.0000 N   0  0  0  0  0  0  0  0  0  0  0  0
   -2.5796   -4.5140    0.0000 C   0  0  0  0  0  0  0  0  0  0  0  0
   -1.7100   -5.0076    0.0000 O   0  0  0  0  0  0  0  0  0  0  0  0
   -3.4420   -5.0203    0.0000 C   0  0  0  0  0  0  0  0  0  0  0  0
   -4.3147   -4.5216    0.0000 C   0  0  0  0  0  0  0  0  0  0  0  0
   -5.1771   -5.0279    0.0000 C   0  0  0  0  0  0  0  0  0  0  0  0
   -5.1756   -6.0280    0.0000 C   0  0  0  0  0  0  0  0  0  0  0  0
   -4.3028   -6.5267    0.0000 C   0  0  0  0  0  0  0  0  0  0  0  0
   -3.4316   -6.0254    0.0000 C   0  0  0  0  0  0  0  0  0  0  0  0
   -4.3014   -7.5267    0.0000 C   0  0  0  0  0  0  0  0  0  0  0  0
   -3.3014   -7.5252    0.0000 C   0  0  0  0  0  0  0  0  0  0  0  0
   -5.3014   -7.5282    0.0000 C   0  0  0  0  0  0  0  0  0  0  0  0
   -4.2999   -8.5267    0.0000 C   0  0  0  0  0  0  0  0  0  0  0  0
   -4.2984   -9.5267    0.0000 N   0  0  0  0  0  0  0  0  0  0  0  0
   -0.8519   -3.5064    0.0000 C   0  0  0  0  0  0  0  0  0  0  0  0
    0.0104   -3.0000    0.0000 C   0  0  0  0  0  0  0  0  0  0  0  0
    0.0089   -2.0000    0.0000 C   0  0  0  0  0  0  0  0  0  0  0  0
    0.8735   -1.4975    0.0000 C   0  0  0  0  0  0  0  0  0  0  0  0
    0.8679   -0.4977    0.0000 C   0  0  0  0  0  0  0  0  0  0  0  0
    1.7371   -0.0000    0.0000 C   0  0  0  0  0  0  0  0  0  0  0  0
    2.6038   -0.4989    0.0000 C   0  0  0  0  0  0  0  0  0  0  0  0
    2.6037   -1.4989    0.0000 O   0  0  0  0  0  0  0  0  0  0  0  0
  1  2  1  0
  2 33  1  0
  2  3  1  0
  3  4  2  0
  4  5  1  0
  5 32  2  0
  5  6  1  0
  6  7  2  0
  7  8  1  0
  8  9  1  0
  9 10  1  0
 10 29  1  0
 10 11  2  0
 11 12  1  0
 12 13  1  0
 13 14  1  0
 14 15  2  0
 14 16  1  0
 16 21  1  0
 16 17  2  0
 17 18  1  0
 18 19  2  0
 19 20  1  0
 20 21  2  0
 20 22  1  0
 22 23  1  0
 22 24  1  0
 22 25  1  0
 25 26  3  0
 12 27  2  0
 27 28  1  0
 28 29  2  0
 29 30  1  0
  8 31  2  0
 31 32  1  0
 32 33  1  0
 33 34  2  0
M  END
>  <SMILES>  (825) 
Cc1ccc(NC(=O)c2cccc(C(C)(C)C#N)c2)cc1Nc1ccc2ncn(C)c(=O)c2c1

>  <CollectionName>  (825) 
chembl

>  <LOG PLASMA PROTEIN BINDING (RAT) (% unbound)>  (825) 
1.69897000434

>  <Internal ID>  (825) 


>  <Source>  (825) 
AstraZeneca

$$$$
CHEMBL54
     RDKit          2D

 26 28  0  0  0  0  0  0  0  0999 V2000
   -0.6420   -0.7667    0.0000 O   0  0  0  0  0  0  0  0  0  0  0  0
    0.0000    0.0000    0.0000 C   0  0  0  0  0  0  0  0  0  0  0  0
   -0.8675    0.4975    0.0000 C   0  0  0  0  0  0  0  0  0  0  0  0
   -0.8675    1.5027    0.0000 C   0  0  0  0  0  0  0  0  0  0  0  0
   -0.0000    2.0104    0.0000 N   0  0  0  0  0  0  0  0  0  0  0  0
   -0.0000    3.0104    0.0000 C   0  0  0  0  0  0  0  0  0  0  0  0
   -0.8660    3.5104    0.0000 C   0  0  0  0  0  0  0  0  0  0  0  0
   -0.8660    4.5104    0.0000 C   0  0  0  0  0  0  0  0  0  0  0  0
   -1.7321    5.0104    0.0000 C   0  0  0  0  0  0  0  0  0  0  0  0
   -2.5981    4.5104    0.0000 O   0  0  0  0  0  0  0  0  0  0  0  0
   -1.7321    6.0104    0.0000 C   0  0  0  0  0  0  0  0  0  0  0  0
   -0.8667    6.5117    0.0000 C   0  0  0  0  0  0  0  0  0  0  0  0
   -0.8624    7.5117    0.0000 C   0  0  0  0  0  0  0  0  0  0  0  0
   -1.7322    8.0156    0.0000 C   0  0  0  0  0  0  0  0  0  0  0  0
   -1.7278    9.0155    0.0000 F   0  0  0  0  0  0  0  0  0  0  0  0
   -2.6063    7.5194    0.0000 C   0  0  0  0  0  0  0  0  0  0  0  0
   -2.6019    6.5143    0.0000 C   0  0  0  0  0  0  0  0  0  0  0  0
    0.8675    1.5027    0.0000 C   0  0  0  0  0  0  0  0  0  0  0  0
    0.8675    0.4975    0.0000 C   0  0  0  0  0  0  0  0  0  0  0  0
    0.6420   -0.7667    0.0000 C   0  0  0  0  0  0  0  0  0  0  0  0
    0.3005   -1.7066    0.0000 C   0  0  0  0  0  0  0  0  0  0  0  0
    0.9392   -2.4760    0.0000 C   0  0  0  0  0  0  0  0  0  0  0  0
    1.9295   -2.3039    0.0000 C   0  0  0  0  0  0  0  0  0  0  0  0
    2.5682   -3.0734    0.0000 Cl  0  0  0  0  0  0  0  0  0  0  0  0
    2.2812   -1.3622    0.0000 C   0  0  0  0  0  0  0  0  0  0  0  0
    1.6324   -0.5945    0.0000 C   0  0  0  0  0  0  0  0  0  0  0  0
  1  2  1  0
  2 19  1  0
  2  3  1  0
  3  4  1  0
  4  5  1  0
  5  6  1  0
  6  7  1  0
  7  8  1  0
  8  9  1  0
  9 10  2  0
  9 11  1  0
 11 17  1  0
 11 12  2  0
 12 13  1  0
 13 14  2  0
 14 15  1  0
 14 16  1  0
 16 17  2  0
  5 18  1  0
 18 19  1  0
  2 20  1  0
 20 26  1  0
 20 21  2  0
 21 22  1  0
 22 23  2  0
 23 24  1  0
 23 25  1  0
 25 26  2  0
M  END
>  <SMILES>  (826) 
O=C(CCCN1CCC(O)(c2ccc(Cl)cc2)CC1)c1ccc(F)cc1

>  <CollectionName>  (826) 
chembl

>  <LOG PLASMA PROTEIN BINDING (RAT) (% unbound)>  (826) 
1.27044590802

>  <Internal ID>  (826) 


>  <Source>  (826) 
AstraZeneca

$$$$
CHEMBL445
     RDKit          2D

 20 22  0  0  0  0  0  0  0  0999 V2000
    4.5942   -5.0078    0.0000 C   0  0  0  0  0  0  0  0  0  0  0  0
    4.5898   -4.0078    0.0000 N   0  0  0  0  0  0  0  0  0  0  0  0
    3.7216   -3.5116    0.0000 C   0  0  0  0  0  0  0  0  0  0  0  0
    3.7172   -2.5116    0.0000 C   0  0  0  0  0  0  0  0  0  0  0  0
    2.8490   -2.0154    0.0000 C   0  0  0  0  0  0  0  0  0  0  0  0
    2.8446   -1.0154    0.0000 C   0  0  0  0  0  0  0  0  0  0  0  0
    1.9312   -0.5840    0.0000 C   0  0  0  0  0  0  0  0  0  0  0  0
    1.2003   -1.2778    0.0000 C   0  0  0  0  0  0  0  0  0  0  0  0
    0.2313   -0.9837    0.0000 C   0  0  0  0  0  0  0  0  0  0  0  0
    0.0000    0.0000    0.0000 C   0  0  0  0  0  0  0  0  0  0  0  0
    0.7377    0.6898    0.0000 C   0  0  0  0  0  0  0  0  0  0  0  0
    1.6999    0.3997    0.0000 C   0  0  0  0  0  0  0  0  0  0  0  0
    2.3292    1.1930    0.0000 C   0  0  0  0  0  0  0  0  0  0  0  0
    3.3333    1.1944    0.0000 C   0  0  0  0  0  0  0  0  0  0  0  0
    3.9620    0.4062    0.0000 C   0  0  0  0  0  0  0  0  0  0  0  0
    4.9146    0.7195    0.0000 C   0  0  0  0  0  0  0  0  0  0  0  0
    5.6612    0.0428    0.0000 C   0  0  0  0  0  0  0  0  0  0  0  0
    5.4510   -0.9405    0.0000 C   0  0  0  0  0  0  0  0  0  0  0  0
    4.4941   -1.2472    0.0000 C   0  0  0  0  0  0  0  0  0  0  0  0
    3.7517   -0.5772    0.0000 C   0  0  0  0  0  0  0  0  0  0  0  0
  1  2  1  0
  2  3  1  0
  3  4  1  0
  4  5  1  0
  5  6  2  0
  6 20  1  0
  6  7  1  0
  7 12  2  0
  7  8  1  0
  8  9  2  0
  9 10  1  0
 10 11  2  0
 11 12  1  0
 12 13  1  0
 13 14  1  0
 14 15  1  0
 15 20  2  0
 15 16  1  0
 16 17  2  0
 17 18  1  0
 18 19  2  0
 19 20  1  0
M  END
>  <SMILES>  (827) 
CNCCC=C1c2ccccc2CCc2ccccc21

>  <CollectionName>  (827) 
chembl

>  <LOG PLASMA PROTEIN BINDING (RAT) (% unbound)>  (827) 
1.11892575283

>  <Internal ID>  (827) 


>  <Source>  (827) 
AstraZeneca

$$$$
CHEMBL83597
     RDKit          2D

 26 29  0  0  1  0  0  0  0  0999 V2000
    3.8929   -3.2564    0.0000 C   0  0  0  0  0  0  0  0  0  0  0  0
    4.3904   -2.3890    0.0000 N   0  0  0  0  0  0  0  0  0  0  0  0
    5.3848   -2.2795    0.0000 C   0  0  0  0  0  0  0  0  0  0  0  0
    5.5940   -1.3016    0.0000 C   0  0  0  0  0  0  0  0  0  0  0  0
    4.7260   -0.8020    0.0000 C   0  0  0  0  0  0  0  0  0  0  0  0
    3.9809   -1.4715    0.0000 C   0  0  0  0  0  0  0  0  0  0  0  0
    3.0028   -1.2636    0.0000 C   0  0  0  0  0  0  0  0  0  0  0  0
    2.6938   -0.3125    0.0000 C   0  0  0  0  0  0  0  0  0  0  0  0
    3.2858    0.5023    0.0000 C   0  0  0  0  0  0  0  0  0  0  0  0
    2.6938    1.3169    0.0000 N   0  0  0  0  0  0  0  0  0  0  0  0
    1.7360    1.0058    0.0000 C   0  0  0  0  0  0  0  0  0  0  0  0
    0.8680    1.5138    0.0000 C   0  0  0  0  0  0  0  0  0  0  0  0
    0.0000    1.0058    0.0000 C   0  0  0  0  0  0  0  0  0  0  0  0
    0.0000    0.0000    0.0000 C   0  0  0  0  0  0  0  0  0  0  0  0
   -0.8653   -0.5013    0.0000 N   0  0  0  0  0  0  0  0  0  0  0  0
   -0.8639   -1.5013    0.0000 C   0  0  0  0  0  0  0  0  0  0  0  0
    0.0088   -2.0000    0.0000 N   0  0  0  0  0  0  0  0  0  0  0  0
    0.0014   -3.0051    0.0000 C   0  0  0  0  0  0  0  0  0  0  0  0
   -0.8699   -3.5064    0.0000 C   0  0  0  0  0  0  0  0  0  0  0  0
   -1.7337   -3.0026    0.0000 C   0  0  0  0  0  0  0  0  0  0  0  0
   -1.7351   -2.0025    0.0000 C   0  0  0  0  0  0  0  0  0  0  0  0
   -2.6011   -1.5025    0.0000 N   0  0  0  0  0  0  0  0  0  0  0  0
   -3.4672   -2.0024    0.0000 O   0  0  0  0  0  0  0  0  0  0  0  0
   -2.6011   -0.5025    0.0000 O   0  0  0  0  0  0  0  0  0  0  0  0
    0.8680   -0.4978    0.0000 C   0  0  0  0  0  0  0  0  0  0  0  0
    1.7360   -0.0012    0.0000 C   0  0  0  0  0  0  0  0  0  0  0  0
  1  2  1  0
  2  6  1  0
  2  3  1  0
  3  4  1  0
  4  5  1  0
  5  6  1  0
  6  7  1  1
  7  8  1  0
  8 26  1  0
  8  9  2  0
  9 10  1  0
 10 11  1  0
 11 26  2  0
 11 12  1  0
 12 13  2  0
 13 14  1  0
 14 15  1  0
 15 16  1  0
 16 21  1  0
 16 17  2  0
 17 18  1  0
 18 19  2  0
 19 20  1  0
 20 21  2  0
 21 22  1  0
 22 23  2  0
 22 24  1  0
 14 25  2  0
 25 26  1  0
M  CHG  2  22   1  24  -1
M  END
>  <SMILES>  (828) 
CN1CCC[C@@H]1Cc1c[nH]c2ccc(Nc3ncccc3[N+](=O)[O-])cc12

>  <CollectionName>  (828) 
chembl

>  <LOG PLASMA PROTEIN BINDING (RAT) (% unbound)>  (828) 
1.58759872972

>  <Internal ID>  (828) 


>  <Source>  (828) 
AstraZeneca

$$$$
CHEMBL319136
     RDKit          2D

 28 30  0  0  1  0  0  0  0  0999 V2000
    8.7858   -0.3634    0.0000 C   0  0  0  0  0  0  0  0  0  0  0  0
    7.7858   -0.3635    0.0000 N   0  0  0  0  0  0  0  0  0  0  0  0
    7.2859   -1.2295    0.0000 C   0  0  0  0  0  0  0  0  0  0  0  0
    7.2858    0.5025    0.0000 C   0  0  0  0  0  0  0  0  0  0  0  0
    7.7857    1.3686    0.0000 O   0  0  0  0  0  0  0  0  0  0  0  0
    6.2858    0.5025    0.0000 C   0  0  0  0  0  0  0  0  0  0  0  0
    5.7859   -0.3636    0.0000 O   0  0  0  0  0  0  0  0  0  0  0  0
    5.7857    1.3685    0.0000 C   0  0  0  0  0  0  0  0  0  0  0  0
    6.2857    2.2345    0.0000 C   0  0  0  0  0  0  0  0  0  0  0  0
    5.7856    3.1005    0.0000 C   0  0  0  0  0  0  0  0  0  0  0  0
    6.2908    3.9696    0.0000 C   0  0  0  0  0  0  0  0  0  0  0  0
    5.7907    4.8356    0.0000 C   0  0  0  0  0  0  0  0  0  0  0  0
    4.7907    4.8414    0.0000 C   0  0  0  0  0  0  0  0  0  0  0  0
    4.2856    3.9724    0.0000 C   0  0  0  0  0  0  0  0  0  0  0  0
    4.7805    3.0975    0.0000 C   0  0  0  0  0  0  0  0  0  0  0  0
    4.7857    1.3684    0.0000 N   0  0  0  0  0  0  0  0  0  0  0  0
    4.2858    0.5024    0.0000 C   0  0  0  0  0  0  0  0  0  0  0  0
    4.7859   -0.3636    0.0000 O   0  0  0  0  0  0  0  0  0  0  0  0
    3.2858    0.5023    0.0000 C   0  0  0  0  0  0  0  0  0  0  0  0
    2.6938   -0.3125    0.0000 C   0  0  0  0  0  0  0  0  0  0  0  0
    1.7360   -0.0012    0.0000 C   0  0  0  0  0  0  0  0  0  0  0  0
    0.8680   -0.4978    0.0000 C   0  0  0  0  0  0  0  0  0  0  0  0
    0.0000    0.0000    0.0000 C   0  0  0  0  0  0  0  0  0  0  0  0
   -0.8653   -0.5013    0.0000 Cl  0  0  0  0  0  0  0  0  0  0  0  0
    0.0000    1.0058    0.0000 C   0  0  0  0  0  0  0  0  0  0  0  0
    0.8680    1.5138    0.0000 C   0  0  0  0  0  0  0  0  0  0  0  0
    1.7360    1.0058    0.0000 C   0  0  0  0  0  0  0  0  0  0  0  0
    2.6938    1.3169    0.0000 N   0  0  0  0  0  0  0  0  0  0  0  0
  1  2  1  0
  2  3  1  0
  2  4  1  0
  4  5  2  0
  4  6  1  0
  6  7  1  6
  6  8  1  0
  8  9  1  1
  9 10  1  0
 10 15  1  0
 10 11  2  0
 11 12  1  0
 12 13  2  0
 13 14  1  0
 14 15  2  0
  8 16  1  0
 16 17  1  0
 17 18  2  0
 17 19  1  0
 19 28  1  0
 19 20  2  0
 20 21  1  0
 21 27  2  0
 21 22  1  0
 22 23  2  0
 23 24  1  0
 23 25  1  0
 25 26  2  0
 26 27  1  0
 27 28  1  0
M  END
>  <SMILES>  (829) 
CN(C)C(=O)[C@H](O)[C@H](Cc1ccccc1)NC(=O)c1cc2cc(Cl)ccc2[nH]1

>  <CollectionName>  (829) 
chembl

>  <LOG PLASMA PROTEIN BINDING (RAT) (% unbound)>  (829) 
0.428134794029

>  <Internal ID>  (829) 


>  <Source>  (829) 
AstraZeneca

$$$$
CHEMBL327715
     RDKit          2D

 25 28  0  0  0  0  0  0  0  0999 V2000
   -1.7320    1.0008    0.0000 N   0  0  0  0  0  0  0  0  0  0  0  0
   -0.8675    1.5033    0.0000 C   0  0  0  0  0  0  0  0  0  0  0  0
   -0.8704    2.5033    0.0000 N   0  0  0  0  0  0  0  0  0  0  0  0
    0.0000    1.0058    0.0000 C   0  0  0  0  0  0  0  0  0  0  0  0
    0.0000    0.0000    0.0000 C   0  0  0  0  0  0  0  0  0  0  0  0
    0.8680   -0.4979    0.0000 C   0  0  0  0  0  0  0  0  0  0  0  0
    1.7360   -0.0013    0.0000 C   0  0  0  0  0  0  0  0  0  0  0  0
    2.6938   -0.3126    0.0000 N   0  0  0  0  0  0  0  0  0  0  0  0
    3.2858    0.5022    0.0000 C   0  0  0  0  0  0  0  0  0  0  0  0
    2.6938    1.3168    0.0000 N   0  0  0  0  0  0  0  0  0  0  0  0
    1.7360    1.0058    0.0000 C   0  0  0  0  0  0  0  0  0  0  0  0
    0.8680    1.5137    0.0000 C   0  0  0  0  0  0  0  0  0  0  0  0
    4.2858    0.5023    0.0000 C   0  0  0  0  0  0  0  0  0  0  0  0
    4.7858    1.3743    0.0000 C   0  0  0  0  0  0  0  0  0  0  0  0
    5.7858    1.3744    0.0000 C   0  0  0  0  0  0  0  0  0  0  0  0
    6.2909    0.5113    0.0000 C   0  0  0  0  0  0  0  0  0  0  0  0
    5.7910   -0.3607    0.0000 C   0  0  0  0  0  0  0  0  0  0  0  0
    4.7859   -0.3697    0.0000 C   0  0  0  0  0  0  0  0  0  0  0  0
    4.2885   -1.2372    0.0000 O   0  0  0  0  0  0  0  0  0  0  0  0
    6.2961   -1.2237    0.0000 C   0  0  0  0  0  0  0  0  0  0  0  0
    7.3013   -1.2148    0.0000 C   0  0  0  0  0  0  0  0  0  0  0  0
    7.8065   -2.0778    0.0000 C   0  0  0  0  0  0  0  0  0  0  0  0
    7.3167   -2.9497    0.0000 C   0  0  0  0  0  0  0  0  0  0  0  0
    6.3116   -2.9587    0.0000 C   0  0  0  0  0  0  0  0  0  0  0  0
    5.7962   -2.0957    0.0000 C   0  0  0  0  0  0  0  0  0  0  0  0
  1  2  1  0
  2  3  2  3
  2  4  1  0
  4 12  2  0
  4  5  1  0
  5  6  2  0
  6  7  1  0
  7 11  2  0
  7  8  1  0
  8  9  1  0
  9 10  2  0
 10 11  1  0
 11 12  1  0
  9 13  1  0
 13 18  1  0
 13 14  2  0
 14 15  1  0
 15 16  2  0
 16 17  1  0
 17 18  2  0
 18 19  1  0
 17 20  1  0
 20 25  1  0
 20 21  2  0
 21 22  1  0
 22 23  2  0
 23 24  1  0
 24 25  2  0
M  END
>  <SMILES>  (830) 
N=C(N)c1ccc2[nH]c(-c3cccc(-c4ccccc4)c3O)nc2c1

>  <CollectionName>  (830) 
chembl

>  <LOG PLASMA PROTEIN BINDING (RAT) (% unbound)>  (830) 
0.143014800254

>  <Internal ID>  (830) 


>  <Source>  (830) 
AstraZeneca

$$$$
CHEMBL2110579
     RDKit          2D

 40 43  0  0  1  0  0  0  0  0999 V2000
    3.7283   -8.3018    0.0000 C   0  0  0  0  0  0  0  0  0  0  0  0
    3.1142   -7.5126    0.0000 N   0  0  0  0  0  0  0  0  0  0  0  0
    2.1236   -7.6498    0.0000 C   0  0  0  0  0  0  0  0  0  0  0  0
    3.4906   -6.5861    0.0000 N   0  0  0  0  0  0  0  0  0  0  0  0
    4.4812   -6.4489    0.0000 C   0  0  0  0  0  0  0  0  0  0  0  0
    2.8765   -5.7969    0.0000 C   0  0  0  0  0  0  0  0  0  0  0  0
    1.8860   -5.9341    0.0000 O   0  0  0  0  0  0  0  0  0  0  0  0
    3.2530   -4.8705    0.0000 C   0  0  0  0  0  0  0  0  0  0  0  0
    4.1005   -5.4013    0.0000 C   0  0  0  0  0  0  0  0  0  0  0  0
    4.9839   -4.9327    0.0000 C   0  0  0  0  0  0  0  0  0  0  0  0
    5.8342   -5.4687    0.0000 C   0  0  0  0  0  0  0  0  0  0  0  0
    6.7177   -5.0002    0.0000 C   0  0  0  0  0  0  0  0  0  0  0  0
    6.7595   -4.0010    0.0000 C   0  0  0  0  0  0  0  0  0  0  0  0
    5.9092   -3.4650    0.0000 C   0  0  0  0  0  0  0  0  0  0  0  0
    5.0170   -3.9281    0.0000 C   0  0  0  0  0  0  0  0  0  0  0  0
    2.2754   -4.6597    0.0000 C   0  0  0  0  0  0  0  0  0  0  0  0
    1.9637   -3.7095    0.0000 C   0  0  0  0  0  0  0  0  0  0  0  0
    2.6363   -2.9625    0.0000 C   0  0  0  0  0  0  0  0  0  0  0  0
    3.6207   -3.1657    0.0000 N   0  0  0  0  0  0  0  0  0  0  0  0
    3.9256   -4.1235    0.0000 C   0  0  0  0  0  0  0  0  0  0  0  0
    4.2899   -2.4226    0.0000 C   0  0  0  0  0  0  0  0  0  0  0  0
    5.2680   -2.6306    0.0000 O   0  0  0  0  0  0  0  0  0  0  0  0
    3.9809   -1.4715    0.0000 C   0  0  0  0  0  0  0  0  0  0  0  0
    3.0028   -1.2636    0.0000 C   0  0  0  0  0  0  0  0  0  0  0  0
    2.6938   -0.3125    0.0000 C   0  0  0  0  0  0  0  0  0  0  0  0
    3.2858    0.5023    0.0000 C   0  0  0  0  0  0  0  0  0  0  0  0
    2.6938    1.3169    0.0000 N   0  0  0  0  0  0  0  0  0  0  0  0
    1.7360    1.0058    0.0000 C   0  0  0  0  0  0  0  0  0  0  0  0
    0.8680    1.5138    0.0000 C   0  0  0  0  0  0  0  0  0  0  0  0
    0.0000    1.0058    0.0000 C   0  0  0  0  0  0  0  0  0  0  0  0
    0.0000    0.0000    0.0000 C   0  0  0  0  0  0  0  0  0  0  0  0
    0.8680   -0.4978    0.0000 C   0  0  0  0  0  0  0  0  0  0  0  0
    1.7360   -0.0012    0.0000 C   0  0  0  0  0  0  0  0  0  0  0  0
    4.6501   -0.7284    0.0000 N   0  0  0  0  0  0  0  0  0  0  0  0
    5.6282   -0.9364    0.0000 C   0  0  0  0  0  0  0  0  0  0  0  0
    5.9372   -1.8875    0.0000 O   0  0  0  0  0  0  0  0  0  0  0  0
    6.2974   -0.1933    0.0000 C   0  0  0  0  0  0  0  0  0  0  0  0
    7.0405   -0.8624    0.0000 C   0  0  0  0  0  0  0  0  0  0  0  0
    6.9665    0.5498    0.0000 C   0  0  0  0  0  0  0  0  0  0  0  0
    5.5543    0.4759    0.0000 N   0  0  0  0  0  0  0  0  0  0  0  0
  1  2  1  0
  2  3  1  0
  2  4  1  0
  4  5  1  0
  4  6  1  0
  6  7  2  0
  8  6  1  0
  8 20  1  0
  8  9  1  6
  9 10  1  0
 10 15  1  0
 10 11  2  0
 11 12  1  0
 12 13  2  0
 13 14  1  0
 14 15  2  0
  8 16  1  0
 16 17  1  0
 17 18  1  0
 18 19  1  0
 19 20  1  0
 19 21  1  0
 21 22  2  0
 23 21  1  0
 23 24  1  1
 24 25  1  0
 25 33  1  0
 25 26  2  0
 26 27  1  0
 27 28  1  0
 28 33  2  0
 28 29  1  0
 29 30  2  0
 30 31  1  0
 31 32  2  0
 32 33  1  0
 23 34  1  0
 34 35  1  0
 35 36  2  0
 35 37  1  0
 37 38  1  0
 37 39  1  0
 37 40  1  0
M  END
>  <SMILES>  (831) 
CN(C)N(C)C(=O)[C@@]1(Cc2ccccc2)CCCN(C(=O)[C@@H](Cc2c[nH]c3ccccc23)NC(=O)C(C)(C)N)C1

>  <CollectionName>  (831) 
chembl

>  <LOG PLASMA PROTEIN BINDING (RAT) (% unbound)>  (831) 
1.20411998266

>  <Internal ID>  (831) 


>  <Source>  (831) 
AstraZeneca

$$$$
CHEMBL41
     RDKit          2D

 22 23  0  0  1  0  0  0  0  0999 V2000
    4.3257   -1.5025    0.0000 C   0  0  0  0  0  0  0  0  0  0  0  0
    4.3286   -0.5025    0.0000 N   0  0  0  0  0  0  0  0  0  0  0  0
    3.4641    0.0001    0.0000 C   0  0  0  0  0  0  0  0  0  0  0  0
    3.4670    1.0001    0.0000 C   0  0  0  0  0  0  0  0  0  0  0  0
    2.6025    1.5026    0.0000 C   0  0  0  0  0  0  0  0  0  0  0  0
    2.6054    2.5026    0.0000 O   0  0  0  0  0  0  0  0  0  0  0  0
    3.4729    3.0001    0.0000 C   0  0  0  0  0  0  0  0  0  0  0  0
    3.4729    4.0053    0.0000 C   0  0  0  0  0  0  0  0  0  0  0  0
    4.3404    4.5028    0.0000 C   0  0  0  0  0  0  0  0  0  0  0  0
    5.2079    4.0053    0.0000 C   0  0  0  0  0  0  0  0  0  0  0  0
    5.2079    3.0001    0.0000 C   0  0  0  0  0  0  0  0  0  0  0  0
    4.3404    2.4924    0.0000 C   0  0  0  0  0  0  0  0  0  0  0  0
    6.0732    4.5065    0.0000 C   0  0  0  0  0  0  0  0  0  0  0  0
    5.5720    5.3718    0.0000 F   0  0  0  0  0  0  0  0  0  0  0  0
    6.5745    3.6412    0.0000 F   0  0  0  0  0  0  0  0  0  0  0  0
    6.9385    5.0078    0.0000 F   0  0  0  0  0  0  0  0  0  0  0  0
    1.7350    1.0052    0.0000 C   0  0  0  0  0  0  0  0  0  0  0  0
    1.7350   -0.0000    0.0000 C   0  0  0  0  0  0  0  0  0  0  0  0
    0.8675   -0.4975    0.0000 C   0  0  0  0  0  0  0  0  0  0  0  0
    0.0000    0.0000    0.0000 C   0  0  0  0  0  0  0  0  0  0  0  0
    0.0000    1.0052    0.0000 C   0  0  0  0  0  0  0  0  0  0  0  0
    0.8675    1.5129    0.0000 C   0  0  0  0  0  0  0  0  0  0  0  0
  1  2  1  0
  2  3  1  0
  3  4  1  0
  4  5  1  0
  5  6  1  0
  6  7  1  0
  7 12  1  0
  7  8  2  0
  8  9  1  0
  9 10  2  0
 10 11  1  0
 11 12  2  0
 10 13  1  0
 13 14  1  0
 13 15  1  0
 13 16  1  0
  5 17  1  0
 17 22  1  0
 17 18  2  0
 18 19  1  0
 19 20  2  0
 20 21  1  0
 21 22  2  0
M  END
>  <SMILES>  (832) 
CNCCC(Oc1ccc(C(F)(F)F)cc1)c1ccccc1

>  <CollectionName>  (832) 
chembl

>  <LOG PLASMA PROTEIN BINDING (RAT) (% unbound)>  (832) 
0.7168377233

>  <Internal ID>  (832) 


>  <Source>  (832) 
AstraZeneca

$$$$
CHEMBL1972466
     RDKit          2D

 27 30  0  0  1  0  0  0  0  0999 V2000
    1.7339    3.0135    0.0000 C   0  0  0  0  0  0  0  0  0  0  0  0
    0.8679    2.5135    0.0000 C   0  0  0  0  0  0  0  0  0  0  0  0
    0.0019    3.0135    0.0000 N   0  0  0  0  0  0  0  0  0  0  0  0
    0.0019    4.0135    0.0000 C   0  0  0  0  0  0  0  0  0  0  0  0
   -0.8701    4.5135    0.0000 C   0  0  0  0  0  0  0  0  0  0  0  0
   -0.8702    5.5136    0.0000 C   0  0  0  0  0  0  0  0  0  0  0  0
   -0.0071    6.0186    0.0000 C   0  0  0  0  0  0  0  0  0  0  0  0
    0.8649    5.5186    0.0000 C   0  0  0  0  0  0  0  0  0  0  0  0
    0.8738    4.5135    0.0000 C   0  0  0  0  0  0  0  0  0  0  0  0
    0.8679    1.5135    0.0000 C   0  0  0  0  0  0  0  0  0  0  0  0
    0.0000    1.0057    0.0000 C   0  0  0  0  0  0  0  0  0  0  0  0
    0.0000    0.0000    0.0000 C   0  0  0  0  0  0  0  0  0  0  0  0
    0.8679   -0.4978    0.0000 C   0  0  0  0  0  0  0  0  0  0  0  0
    1.7371    0.0000    0.0000 N   0  0  0  0  0  0  0  0  0  0  0  0
    2.6038   -0.4989    0.0000 C   0  0  0  0  0  0  0  0  0  0  0  0
    2.6037   -1.4989    0.0000 O   0  0  0  0  0  0  0  0  0  0  0  0
    3.4748    0.0022    0.0000 C   0  0  0  0  0  0  0  0  0  0  0  0
    3.4735    1.0079    0.0000 C   0  0  0  0  0  0  0  0  0  0  0  0
    2.6012    1.5124    0.0000 N   0  0  0  0  0  0  0  0  0  0  0  0
    1.7358    1.0057    0.0000 C   0  0  0  0  0  0  0  0  0  0  0  0
    4.3394    1.5081    0.0000 N   0  0  0  0  0  0  0  0  0  0  0  0
    4.3362    2.5082    0.0000 C   0  0  0  0  0  0  0  0  0  0  0  0
    5.2066    3.0110    0.0000 C   0  0  0  0  0  0  0  0  0  0  0  0
    6.0802    2.5138    0.0000 O   0  0  0  0  0  0  0  0  0  0  0  0
    6.0745    1.5087    0.0000 C   0  0  0  0  0  0  0  0  0  0  0  0
    5.2041    1.0058    0.0000 C   0  0  0  0  0  0  0  0  0  0  0  0
   -0.8653   -0.5012    0.0000 C   0  0  0  0  0  0  0  0  0  0  0  0
  1  2  1  0
  2  3  1  0
  3  4  1  0
  4  9  1  0
  4  5  2  0
  5  6  1  0
  6  7  2  0
  7  8  1  0
  8  9  2  0
  2 10  1  0
 10 20  1  0
 10 11  2  0
 11 12  1  0
 12 13  2  0
 13 14  1  0
 14 20  1  0
 14 15  1  0
 15 16  2  0
 15 17  1  0
 17 18  2  0
 18 19  1  0
 19 20  2  0
 18 21  1  0
 21 26  1  0
 21 22  1  0
 22 23  1  0
 23 24  1  0
 24 25  1  0
 25 26  1  0
 12 27  1  0
M  END
>  <SMILES>  (833) 
Cc1cc(C(C)Nc2ccccc2)c2nc(N3CCOCC3)cc(=O)n2c1

>  <CollectionName>  (833) 
chembl

>  <LOG PLASMA PROTEIN BINDING (RAT) (% unbound)>  (833) 
0.669316880566

>  <Internal ID>  (833) 


>  <Source>  (833) 
AstraZeneca

$$$$
CHEMBL2057372
     RDKit          2D

 36 39  0  0  0  0  0  0  0  0999 V2000
   -1.7372    7.0046    0.0000 C   0  0  0  0  0  0  0  0  0  0  0  0
   -1.7372    6.0046    0.0000 C   0  0  0  0  0  0  0  0  0  0  0  0
   -0.7372    6.0046    0.0000 C   0  0  0  0  0  0  0  0  0  0  0  0
   -2.7372    6.0046    0.0000 C   0  0  0  0  0  0  0  0  0  0  0  0
   -1.7372    5.0046    0.0000 N   0  0  0  0  0  0  0  0  0  0  0  0
   -1.7372    4.0046    0.0000 S   0  0  0  0  0  0  0  0  0  0  0  0
   -2.7372    4.0046    0.0000 O   0  0  0  0  0  0  0  0  0  0  0  0
   -0.7372    4.0046    0.0000 O   0  0  0  0  0  0  0  0  0  0  0  0
   -1.7372    3.0046    0.0000 C   0  0  0  0  0  0  0  0  0  0  0  0
   -2.6070    2.5007    0.0000 C   0  0  0  0  0  0  0  0  0  0  0  0
   -2.6114    1.4956    0.0000 N   0  0  0  0  0  0  0  0  0  0  0  0
   -1.7373    0.9994    0.0000 C   0  0  0  0  0  0  0  0  0  0  0  0
   -0.8675    1.5033    0.0000 C   0  0  0  0  0  0  0  0  0  0  0  0
   -0.8718    2.5033    0.0000 C   0  0  0  0  0  0  0  0  0  0  0  0
   -0.0000    1.0058    0.0000 C   0  0  0  0  0  0  0  0  0  0  0  0
    0.0000    0.0000    0.0000 C   0  0  0  0  0  0  0  0  0  0  0  0
    0.8680   -0.4979    0.0000 C   0  0  0  0  0  0  0  0  0  0  0  0
    1.7360   -0.0013    0.0000 C   0  0  0  0  0  0  0  0  0  0  0  0
    2.6938   -0.3126    0.0000 N   0  0  0  0  0  0  0  0  0  0  0  0
    3.2858    0.5022    0.0000 C   0  0  0  0  0  0  0  0  0  0  0  0
    4.2858    0.5023    0.0000 N   0  0  0  0  0  0  0  0  0  0  0  0
    4.7857    1.3683    0.0000 C   0  0  0  0  0  0  0  0  0  0  0  0
    4.2857    2.2343    0.0000 O   0  0  0  0  0  0  0  0  0  0  0  0
    5.7857    1.3684    0.0000 N   0  0  0  0  0  0  0  0  0  0  0  0
    6.2857    2.2344    0.0000 C   0  0  0  0  0  0  0  0  0  0  0  0
    7.2857    2.2345    0.0000 C   0  0  0  0  0  0  0  0  0  0  0  0
    7.7857    1.3685    0.0000 O   0  0  0  0  0  0  0  0  0  0  0  0
    7.7856    3.1005    0.0000 N   0  0  0  0  0  0  0  0  0  0  0  0
    7.2831    3.9651    0.0000 C   0  0  0  0  0  0  0  0  0  0  0  0
    7.7856    4.8357    0.0000 C   0  0  0  0  0  0  0  0  0  0  0  0
    8.7907    4.8417    0.0000 O   0  0  0  0  0  0  0  0  0  0  0  0
    9.2882    3.9683    0.0000 C   0  0  0  0  0  0  0  0  0  0  0  0
    8.7857    3.0977    0.0000 C   0  0  0  0  0  0  0  0  0  0  0  0
    2.6938    1.3168    0.0000 N   0  0  0  0  0  0  0  0  0  0  0  0
    1.7360    1.0058    0.0000 N   0  0  0  0  0  0  0  0  0  0  0  0
    0.8680    1.5137    0.0000 C   0  0  0  0  0  0  0  0  0  0  0  0
  1  2  1  0
  2  3  1  0
  2  4  1  0
  2  5  1  0
  5  6  1  0
  6  7  2  0
  6  8  2  0
  6  9  1  0
  9 14  2  0
  9 10  1  0
 10 11  2  0
 11 12  1  0
 12 13  2  0
 13 14  1  0
 13 15  1  0
 15 36  2  0
 15 16  1  0
 16 17  2  0
 17 18  1  0
 18 35  1  0
 18 19  2  0
 19 20  1  0
 20 21  1  0
 21 22  1  0
 22 23  2  0
 22 24  1  0
 24 25  1  0
 25 26  1  0
 26 27  2  0
 26 28  1  0
 28 33  1  0
 28 29  1  0
 29 30  1  0
 30 31  1  0
 31 32  1  0
 32 33  1  0
 20 34  2  0
 34 35  1  0
 35 36  1  0
M  END
>  <SMILES>  (834) 
CC(C)(C)NS(=O)(=O)c1cncc(-c2ccc3nc(NC(=O)NCC(=O)N4CCOCC4)nn3c2)c1

>  <CollectionName>  (834) 
chembl

>  <LOG PLASMA PROTEIN BINDING (RAT) (% unbound)>  (834) 
1.72794770954

>  <Internal ID>  (834) 


>  <Source>  (834) 
AstraZeneca

$$$$
CHEMBL2068817
     RDKit          2D

 26 28  0  0  0  0  0  0  0  0999 V2000
    0.8646   -2.5051    0.0000 C   0  0  0  0  0  0  0  0  0  0  0  0
    1.7292   -3.0077    0.0000 O   0  0  0  0  0  0  0  0  0  0  0  0
    2.5966   -2.5102    0.0000 C   0  0  0  0  0  0  0  0  0  0  0  0
    3.4641   -3.0179    0.0000 C   0  0  0  0  0  0  0  0  0  0  0  0
    4.3316   -2.5102    0.0000 C   0  0  0  0  0  0  0  0  0  0  0  0
    4.3316   -1.5050    0.0000 C   0  0  0  0  0  0  0  0  0  0  0  0
    3.4641   -1.0075    0.0000 C   0  0  0  0  0  0  0  0  0  0  0  0
    2.5966   -1.5050    0.0000 C   0  0  0  0  0  0  0  0  0  0  0  0
    1.7313   -1.0038    0.0000 C   0  0  0  0  0  0  0  0  0  0  0  0
    1.7328   -0.0038    0.0000 N   0  0  0  0  0  0  0  0  0  0  0  0
    2.5995    0.4950    0.0000 C   0  0  0  0  0  0  0  0  0  0  0  0
    2.6010    1.4950    0.0000 O   0  0  0  0  0  0  0  0  0  0  0  0
    3.4648   -0.0063    0.0000 C   0  0  0  0  0  0  0  0  0  0  0  0
    0.8675    0.4975    0.0000 C   0  0  0  0  0  0  0  0  0  0  0  0
    0.8675    1.5027    0.0000 C   0  0  0  0  0  0  0  0  0  0  0  0
   -0.0000    2.0104    0.0000 N   0  0  0  0  0  0  0  0  0  0  0  0
   -0.8675    1.5027    0.0000 C   0  0  0  0  0  0  0  0  0  0  0  0
   -0.8675    0.4975    0.0000 C   0  0  0  0  0  0  0  0  0  0  0  0
    0.0000    0.0000    0.0000 C   0  0  0  0  0  0  0  0  0  0  0  0
    0.0000   -1.0000    0.0000 O   0  0  0  0  0  0  0  0  0  0  0  0
   -0.8660   -1.5000    0.0000 C   0  0  0  0  0  0  0  0  0  0  0  0
   -0.8631   -2.5052    0.0000 C   0  0  0  0  0  0  0  0  0  0  0  0
   -1.7291   -3.0053    0.0000 C   0  0  0  0  0  0  0  0  0  0  0  0
   -2.5981   -2.5103    0.0000 C   0  0  0  0  0  0  0  0  0  0  0  0
   -2.6010   -1.5051    0.0000 C   0  0  0  0  0  0  0  0  0  0  0  0
   -1.7350   -0.9949    0.0000 C   0  0  0  0  0  0  0  0  0  0  0  0
  1  2  1  0
  2  3  1  0
  3  8  2  0
  3  4  1  0
  4  5  2  0
  5  6  1  0
  6  7  2  0
  7  8  1  0
  8  9  1  0
  9 10  1  0
 10 11  1  0
 11 12  2  0
 11 13  1  0
 10 14  1  0
 14 19  1  0
 14 15  2  0
 15 16  1  0
 16 17  2  0
 17 18  1  0
 18 19  2  0
 19 20  1  0
 20 21  1  0
 21 26  1  0
 21 22  2  0
 22 23  1  0
 23 24  2  0
 24 25  1  0
 25 26  2  0
M  END
>  <SMILES>  (835) 
COc1ccccc1CN(C(C)=O)c1cnccc1Oc1ccccc1

>  <CollectionName>  (835) 
chembl

>  <LOG PLASMA PROTEIN BINDING (RAT) (% unbound)>  (835) 
1.00389116624

>  <Internal ID>  (835) 


>  <Source>  (835) 
AstraZeneca

$$$$
CHEMBL2069424
     RDKit          2D

 32 35  0  0  1  0  0  0  0  0999 V2000
    0.0113   -6.0082    0.0000 C   0  0  0  0  0  0  0  0  0  0  0  0
   -0.8544   -5.5075    0.0000 C   0  0  0  0  0  0  0  0  0  0  0  0
   -0.8506   -4.5023    0.0000 N   0  0  0  0  0  0  0  0  0  0  0  0
   -1.7251   -4.0068    0.0000 C   0  0  0  0  0  0  0  0  0  0  0  0
   -2.5945   -4.5113    0.0000 C   0  0  0  0  0  0  0  0  0  0  0  0
   -2.5895   -5.5113    0.0000 C   0  0  0  0  0  0  0  0  0  0  0  0
   -1.7238   -6.0119    0.0000 N   0  0  0  0  0  0  0  0  0  0  0  0
   -3.4624   -4.0144    0.0000 C   0  0  0  0  0  0  0  0  0  0  0  0
   -4.3254   -4.5208    0.0000 C   0  0  0  0  0  0  0  0  0  0  0  0
   -5.1984   -4.0215    0.0000 C   0  0  0  0  0  0  0  0  0  0  0  0
   -5.2086   -3.0158    0.0000 C   0  0  0  0  0  0  0  0  0  0  0  0
   -4.3359   -2.5133    0.0000 C   0  0  0  0  0  0  0  0  0  0  0  0
   -4.3437   -1.5092    0.0000 O   0  0  0  0  0  0  0  0  0  0  0  0
   -3.4702   -1.0040    0.0000 C   0  0  0  0  0  0  0  0  0  0  0  0
   -2.5966   -1.5050    0.0000 C   0  0  0  0  0  0  0  0  0  0  0  0
   -2.5966   -2.5113    0.0000 C   0  0  0  0  0  0  0  0  0  0  0  0
   -3.4626   -3.0144    0.0000 C   0  0  0  0  0  0  0  0  0  0  0  0
   -1.7313   -1.0038    0.0000 N   0  0  0  0  0  0  0  0  0  0  0  0
   -1.7328   -0.0038    0.0000 C   0  0  0  0  0  0  0  0  0  0  0  0
   -2.5995    0.4950    0.0000 O   0  0  0  0  0  0  0  0  0  0  0  0
   -0.8675    0.4975    0.0000 C   0  0  0  0  0  0  0  0  0  0  0  0
    0.0000    0.0000    0.0000 C   0  0  0  0  0  0  0  0  0  0  0  0
    0.8675    0.4975    0.0000 C   0  0  0  0  0  0  0  0  0  0  0  0
    0.8675    1.5027    0.0000 C   0  0  0  0  0  0  0  0  0  0  0  0
    1.7350    2.0001    0.0000 O   0  0  0  0  0  0  0  0  0  0  0  0
    1.7379    3.0001    0.0000 C   0  0  0  0  0  0  0  0  0  0  0  0
    2.6054    3.4976    0.0000 C   0  0  0  0  0  0  0  0  0  0  0  0
    2.1080    4.3651    0.0000 F   0  0  0  0  0  0  0  0  0  0  0  0
    3.1029    2.6301    0.0000 F   0  0  0  0  0  0  0  0  0  0  0  0
    3.4729    3.9950    0.0000 F   0  0  0  0  0  0  0  0  0  0  0  0
    0.0000    2.0104    0.0000 N   0  0  0  0  0  0  0  0  0  0  0  0
   -0.8675    1.5027    0.0000 C   0  0  0  0  0  0  0  0  0  0  0  0
  1  2  1  0
  2  7  2  0
  2  3  1  0
  3  4  2  0
  4  5  1  0
  5  6  2  0
  6  7  1  0
  5  8  1  0
  8 17  1  0
  8  9  2  0
  9 10  1  0
 10 11  2  0
 11 12  1  0
 12 17  2  0
 12 13  1  0
 13 14  1  0
 14 15  1  0
 15 16  1  0
 16 17  1  0
 15 18  1  1
 18 19  1  0
 19 20  2  0
 19 21  1  0
 21 32  1  0
 21 22  2  0
 22 23  1  0
 23 24  2  0
 24 25  1  0
 25 26  1  0
 26 27  1  0
 27 28  1  0
 27 29  1  0
 27 30  1  0
 24 31  1  0
 31 32  2  0
M  END
>  <SMILES>  (836) 
Cc1ncc(-c2cccc3c2C[C@H](NC(=O)c2ccc(OCC(F)(F)F)nc2)CO3)cn1

>  <CollectionName>  (836) 
chembl

>  <LOG PLASMA PROTEIN BINDING (RAT) (% unbound)>  (836) 
0.885361220032

>  <Internal ID>  (836) 


>  <Source>  (836) 
AstraZeneca

$$$$
CHEMBL1429296
     RDKit          2D

 29 32  0  0  1  0  0  0  0  0999 V2000
    5.7884    0.3611    0.0000 C   0  0  0  0  0  0  0  0  0  0  0  0
    6.2897   -0.5041    0.0000 O   0  0  0  0  0  0  0  0  0  0  0  0
    5.7910   -1.3709    0.0000 C   0  0  0  0  0  0  0  0  0  0  0  0
    6.2975   -2.2391    0.0000 C   0  0  0  0  0  0  0  0  0  0  0  0
    5.7886   -3.1059    0.0000 C   0  0  0  0  0  0  0  0  0  0  0  0
    4.7834   -3.1045    0.0000 C   0  0  0  0  0  0  0  0  0  0  0  0
    4.2871   -2.2363    0.0000 C   0  0  0  0  0  0  0  0  0  0  0  0
    4.7859   -1.3695    0.0000 C   0  0  0  0  0  0  0  0  0  0  0  0
    4.2858   -0.5035    0.0000 C   0  0  0  0  0  0  0  0  0  0  0  0
    3.2858   -0.5036    0.0000 N   0  0  0  0  0  0  0  0  0  0  0  0
    2.6938    0.3110    0.0000 C   0  0  0  0  0  0  0  0  0  0  0  0
    3.0029    1.2620    0.0000 C   0  0  0  0  0  0  0  0  0  0  0  0
    3.9810    1.4699    0.0000 O   0  0  0  0  0  0  0  0  0  0  0  0
    2.3337    2.0052    0.0000 N   0  0  0  0  0  0  0  0  0  0  0  0
    2.6428    2.9563    0.0000 C   0  0  0  0  0  0  0  0  0  0  0  0
    1.9680    3.7013    0.0000 C   0  0  0  0  0  0  0  0  0  0  0  0
    2.2770    4.6524    0.0000 C   0  0  0  0  0  0  0  0  0  0  0  0
    3.2540    4.8660    0.0000 C   0  0  0  0  0  0  0  0  0  0  0  0
    3.5588    5.8184    0.0000 C   0  0  0  0  0  0  0  0  0  0  0  0
    3.9288    4.1210    0.0000 C   0  0  0  0  0  0  0  0  0  0  0  0
    3.6266    3.1623    0.0000 C   0  0  0  0  0  0  0  0  0  0  0  0
    1.7360   -0.0000    0.0000 C   0  0  0  0  0  0  0  0  0  0  0  0
    0.8680    0.5079    0.0000 C   0  0  0  0  0  0  0  0  0  0  0  0
    0.0000    0.0000    0.0000 C   0  0  0  0  0  0  0  0  0  0  0  0
    0.0000   -1.0058    0.0000 C   0  0  0  0  0  0  0  0  0  0  0  0
    0.8680   -1.5037    0.0000 C   0  0  0  0  0  0  0  0  0  0  0  0
    1.7360   -1.0071    0.0000 C   0  0  0  0  0  0  0  0  0  0  0  0
    2.6938   -1.3184    0.0000 C   0  0  0  0  0  0  0  0  0  0  0  0
    3.0028   -2.2695    0.0000 O   0  0  0  0  0  0  0  0  0  0  0  0
  1  2  1  0
  2  3  1  0
  3  8  2  0
  3  4  1  0
  4  5  2  0
  5  6  1  0
  6  7  2  0
  7  8  1  0
  8  9  1  0
  9 10  1  0
 10 28  1  0
 10 11  1  0
 11 12  1  0
 12 13  2  0
 12 14  1  0
 14 15  1  0
 15 21  1  0
 15 16  1  0
 16 17  1  0
 17 18  1  0
 18 19  1  0
 18 20  1  0
 20 21  1  0
 11 22  1  0
 22 27  1  0
 22 23  2  0
 23 24  1  0
 24 25  2  0
 25 26  1  0
 26 27  2  0
 27 28  1  0
 28 29  2  0
M  END
>  <SMILES>  (837) 
COc1ccccc1CN1C(=O)c2ccccc2C1C(=O)NC1CCC(C)CC1

>  <CollectionName>  (837) 
chembl

>  <LOG PLASMA PROTEIN BINDING (RAT) (% unbound)>  (837) 
0.985875357308

>  <Internal ID>  (837) 


>  <Source>  (837) 
AstraZeneca

$$$$
CHEMBL1164033
     RDKit          2D

 29 30  0  0  0  0  0  0  0  0999 V2000
    2.6113    4.5026    0.0000 C   0  0  0  0  0  0  0  0  0  0  0  0
    3.4759    4.0001    0.0000 N   0  0  0  0  0  0  0  0  0  0  0  0
    4.3434    4.4975    0.0000 C   0  0  0  0  0  0  0  0  0  0  0  0
    3.4729    3.0001    0.0000 C   0  0  0  0  0  0  0  0  0  0  0  0
    2.6054    2.5026    0.0000 C   0  0  0  0  0  0  0  0  0  0  0  0
    2.6025    1.5026    0.0000 O   0  0  0  0  0  0  0  0  0  0  0  0
    1.7350    1.0052    0.0000 C   0  0  0  0  0  0  0  0  0  0  0  0
    0.8675    1.5129    0.0000 C   0  0  0  0  0  0  0  0  0  0  0  0
    0.0000    1.0052    0.0000 C   0  0  0  0  0  0  0  0  0  0  0  0
   -0.8675    1.5026    0.0000 N   0  0  0  0  0  0  0  0  0  0  0  0
   -1.7320    1.0001    0.0000 S   0  0  0  0  0  0  0  0  0  0  0  0
   -2.2346    1.8646    0.0000 O   0  0  0  0  0  0  0  0  0  0  0  0
   -1.2295    0.1355    0.0000 O   0  0  0  0  0  0  0  0  0  0  0  0
   -2.5966    0.4975    0.0000 C   0  0  0  0  0  0  0  0  0  0  0  0
   -2.5951   -0.5025    0.0000 C   0  0  0  0  0  0  0  0  0  0  0  0
   -1.7269   -0.9987    0.0000 Cl  0  0  0  0  0  0  0  0  0  0  0  0
   -3.4575   -1.0088    0.0000 C   0  0  0  0  0  0  0  0  0  0  0  0
   -4.3302   -0.5101    0.0000 C   0  0  0  0  0  0  0  0  0  0  0  0
   -4.3406    0.4950    0.0000 C   0  0  0  0  0  0  0  0  0  0  0  0
   -3.4693    0.9963    0.0000 C   0  0  0  0  0  0  0  0  0  0  0  0
   -3.4708    1.9963    0.0000 Cl  0  0  0  0  0  0  0  0  0  0  0  0
   -5.1925   -1.0164    0.0000 C   0  0  0  0  0  0  0  0  0  0  0  0
   -4.6862   -1.8787    0.0000 F   0  0  0  0  0  0  0  0  0  0  0  0
   -5.6989   -0.1541    0.0000 F   0  0  0  0  0  0  0  0  0  0  0  0
   -6.0549   -1.5228    0.0000 F   0  0  0  0  0  0  0  0  0  0  0  0
    0.0000    0.0000    0.0000 C   0  0  0  0  0  0  0  0  0  0  0  0
    0.8675   -0.4975    0.0000 C   0  0  0  0  0  0  0  0  0  0  0  0
    1.7350   -0.0000    0.0000 C   0  0  0  0  0  0  0  0  0  0  0  0
    2.6003   -0.5013    0.0000 Cl  0  0  0  0  0  0  0  0  0  0  0  0
  1  2  1  0
  2  3  1  0
  2  4  1  0
  4  5  1  0
  5  6  1  0
  6  7  1  0
  7 28  2  0
  7  8  1  0
  8  9  2  0
  9 10  1  0
 10 11  1  0
 11 12  2  0
 11 13  2  0
 11 14  1  0
 14 20  1  0
 14 15  2  0
 15 16  1  0
 15 17  1  0
 17 18  2  0
 18 19  1  0
 19 20  2  0
 20 21  1  0
 18 22  1  0
 22 23  1  0
 22 24  1  0
 22 25  1  0
  9 26  1  0
 26 27  2  0
 27 28  1  0
 28 29  1  0
M  END
>  <SMILES>  (838) 
CN(C)CCOc1cc(NS(=O)(=O)c2c(Cl)cc(C(F)(F)F)cc2Cl)ccc1Cl

>  <CollectionName>  (838) 
chembl

>  <LOG PLASMA PROTEIN BINDING (RAT) (% unbound)>  (838) 
-0.619788758288

>  <Internal ID>  (838) 


>  <Source>  (838) 
AstraZeneca

$$$$
CHEMBL2036958
     RDKit          2D

 20 22  0  0  0  0  0  0  0  0999 V2000
    0.2211   -2.7311    0.0000 C   0  0  0  0  0  0  0  0  0  0  0  0
    0.8623   -3.4984    0.0000 C   0  0  0  0  0  0  0  0  0  0  0  0
    1.7297   -3.0008    0.0000 C   0  0  0  0  0  0  0  0  0  0  0  0
    1.7325   -2.0008    0.0000 C   0  0  0  0  0  0  0  0  0  0  0  0
    2.5998   -1.5032    0.0000 C   0  0  0  0  0  0  0  0  0  0  0  0
    2.6026   -0.5032    0.0000 C   0  0  0  0  0  0  0  0  0  0  0  0
    3.4761   -0.0036    0.0000 C   0  0  0  0  0  0  0  0  0  0  0  0
    3.4774    1.0034    0.0000 C   0  0  0  0  0  0  0  0  0  0  0  0
    4.3446    1.5014    0.0000 O   0  0  0  0  0  0  0  0  0  0  0  0
    2.6052    1.5109    0.0000 O   0  0  0  0  0  0  0  0  0  0  0  0
    1.7374    1.0057    0.0000 C   0  0  0  0  0  0  0  0  0  0  0  0
    1.7360   -0.0012    0.0000 C   0  0  0  0  0  0  0  0  0  0  0  0
    0.8680   -0.4978    0.0000 C   0  0  0  0  0  0  0  0  0  0  0  0
    0.8675   -1.4978    0.0000 O   0  0  0  0  0  0  0  0  0  0  0  0
    0.0000    0.0000    0.0000 N   0  0  0  0  0  0  0  0  0  0  0  0
    0.0000    1.0057    0.0000 C   0  0  0  0  0  0  0  0  0  0  0  0
   -0.8675    1.5031    0.0000 O   0  0  0  0  0  0  0  0  0  0  0  0
    0.8680    1.5138    0.0000 N   0  0  0  0  0  0  0  0  0  0  0  0
    0.2173   -4.2651    0.0000 C   0  0  0  0  0  0  0  0  0  0  0  0
    1.2017   -4.4411    0.0000 C   0  0  0  0  0  0  0  0  0  0  0  0
  1  2  1  0
  2 20  1  0
  2  3  1  0
  3  4  1  0
  4  5  1  0
  5  6  1  0
  6 12  1  0
  6  7  2  0
  7  8  1  0
  8  9  2  0
  8 10  1  0
 10 11  1  0
 11 18  1  0
 11 12  2  0
 12 13  1  0
 13 14  2  0
 13 15  1  0
 15 16  1  0
 16 17  2  0
 16 18  1  0
  2 19  1  0
 19 20  1  0
M  END
>  <SMILES>  (839) 
CC1(CCCc2cc(=O)oc3[nH]c(=O)[nH]c(=O)c23)CC1

>  <CollectionName>  (839) 
chembl

>  <LOG PLASMA PROTEIN BINDING (RAT) (% unbound)>  (839) 
0.173186268412

>  <Internal ID>  (839) 


>  <Source>  (839) 
AstraZeneca

$$$$
CHEMBL2018969
     RDKit          2D

 36 39  0  0  0  0  0  0  0  0999 V2000
    0.0012   -1.9973    0.0000 C   0  0  0  0  0  0  0  0  0  0  0  0
    0.8675   -1.4978    0.0000 O   0  0  0  0  0  0  0  0  0  0  0  0
    0.8680   -0.4978    0.0000 C   0  0  0  0  0  0  0  0  0  0  0  0
    0.0000    0.0000    0.0000 C   0  0  0  0  0  0  0  0  0  0  0  0
    0.0000    1.0058    0.0000 C   0  0  0  0  0  0  0  0  0  0  0  0
    0.8680    1.5138    0.0000 C   0  0  0  0  0  0  0  0  0  0  0  0
    1.7360    1.0058    0.0000 C   0  0  0  0  0  0  0  0  0  0  0  0
    1.7360   -0.0012    0.0000 C   0  0  0  0  0  0  0  0  0  0  0  0
    2.6938   -0.3126    0.0000 C   0  0  0  0  0  0  0  0  0  0  0  0
    3.0027   -1.2637    0.0000 N   0  0  0  0  0  0  0  0  0  0  0  0
    3.9808   -1.4717    0.0000 S   0  0  0  0  0  0  0  0  0  0  0  0
    3.7728   -2.4499    0.0000 O   0  0  0  0  0  0  0  0  0  0  0  0
    4.1889   -0.4936    0.0000 O   0  0  0  0  0  0  0  0  0  0  0  0
    4.9589   -1.6798    0.0000 C   0  0  0  0  0  0  0  0  0  0  0  0
    5.3627   -2.5946    0.0000 C   0  0  0  0  0  0  0  0  0  0  0  0
    6.3588   -2.4905    0.0000 C   0  0  0  0  0  0  0  0  0  0  0  0
    6.5700   -1.5114    0.0000 C   0  0  0  0  0  0  0  0  0  0  0  0
    7.4843   -1.1064    0.0000 Cl  0  0  0  0  0  0  0  0  0  0  0  0
    5.7004   -1.0081    0.0000 S   0  0  0  0  0  0  0  0  0  0  0  0
    3.2858    0.5021    0.0000 N   0  0  0  0  0  0  0  0  0  0  0  0
    2.6939    1.3169    0.0000 N   0  0  0  0  0  0  0  0  0  0  0  0
    3.0030    2.2679    0.0000 C   0  0  0  0  0  0  0  0  0  0  0  0
    3.9812    2.4757    0.0000 C   0  0  0  0  0  0  0  0  0  0  0  0
    4.2891    3.4326    0.0000 C   0  0  0  0  0  0  0  0  0  0  0  0
    5.2673    3.6405    0.0000 C   0  0  0  0  0  0  0  0  0  0  0  0
    5.9407    2.9012    0.0000 C   0  0  0  0  0  0  0  0  0  0  0  0
    5.6328    1.9443    0.0000 C   0  0  0  0  0  0  0  0  0  0  0  0
    6.3062    1.2050    0.0000 C   0  0  0  0  0  0  0  0  0  0  0  0
    7.2831    1.4186    0.0000 N   0  0  0  0  0  0  0  0  0  0  0  0
    7.5866    2.3715    0.0000 C   0  0  0  0  0  0  0  0  0  0  0  0
    6.9132    3.1107    0.0000 O   0  0  0  0  0  0  0  0  0  0  0  0
    8.5636    2.5850    0.0000 C   0  0  0  0  0  0  0  0  0  0  0  0
    8.7771    1.6081    0.0000 C   0  0  0  0  0  0  0  0  0  0  0  0
    9.5405    2.7986    0.0000 C   0  0  0  0  0  0  0  0  0  0  0  0
    8.3500    3.5620    0.0000 O   0  0  0  0  0  0  0  0  0  0  0  0
    4.6515    1.7267    0.0000 C   0  0  0  0  0  0  0  0  0  0  0  0
  1  2  1  0
  2  3  1  0
  3  8  2  0
  3  4  1  0
  4  5  2  0
  5  6  1  0
  6  7  2  0
  7 21  1  0
  7  8  1  0
  8  9  1  0
  9 10  1  0
 10 11  1  0
 11 12  2  0
 11 13  2  0
 11 14  1  0
 14 19  1  0
 14 15  2  0
 15 16  1  0
 16 17  2  0
 17 18  1  0
 17 19  1  0
  9 20  2  0
 20 21  1  0
 21 22  1  0
 22 23  1  0
 23 36  1  0
 23 24  2  0
 24 25  1  0
 25 26  2  0
 26 27  1  0
 27 28  1  0
 28 29  1  0
 29 30  1  0
 30 31  2  0
 30 32  1  0
 32 33  1  0
 32 34  1  0
 32 35  1  0
 27 36  2  0
M  END
>  <SMILES>  (840) 
COc1cccc2c1c(NS(=O)(=O)c1ccc(Cl)s1)nn2Cc1cccc(CNC(=O)C(C)(C)O)c1

>  <CollectionName>  (840) 
chembl

>  <LOG PLASMA PROTEIN BINDING (RAT) (% unbound)>  (840) 
-0.0861861476163

>  <Internal ID>  (840) 


>  <Source>  (840) 
AstraZeneca

$$$$
CHEMBL2021696
     RDKit          2D

 44 47  0  0  1  0  0  0  0  0999 V2000
    1.1003    3.6674    0.0000 C   0  0  0  0  0  0  0  0  0  0  0  0
    1.8414    2.9960    0.0000 N   0  0  0  0  0  0  0  0  0  0  0  0
    2.8204    3.1996    0.0000 C   0  0  0  0  0  0  0  0  0  0  0  0
    3.2284    4.1126    0.0000 O   0  0  0  0  0  0  0  0  0  0  0  0
    3.3221    2.3341    0.0000 N   0  0  0  0  0  0  0  0  0  0  0  0
    2.6483    1.5890    0.0000 N   0  0  0  0  0  0  0  0  0  0  0  0
    1.7350    2.0001    0.0000 C   0  0  0  0  0  0  0  0  0  0  0  0
    0.8675    1.5027    0.0000 C   0  0  0  0  0  0  0  0  0  0  0  0
    0.8675    0.4975    0.0000 C   0  0  0  0  0  0  0  0  0  0  0  0
    0.0000    0.0000    0.0000 C   0  0  0  0  0  0  0  0  0  0  0  0
   -0.0000   -1.0000    0.0000 O   0  0  0  0  0  0  0  0  0  0  0  0
   -0.8675    0.4975    0.0000 C   0  0  0  0  0  0  0  0  0  0  0  0
   -0.8675    1.5027    0.0000 C   0  0  0  0  0  0  0  0  0  0  0  0
    0.0000    2.0104    0.0000 N   0  0  0  0  0  0  0  0  0  0  0  0
   -1.7328   -0.0038    0.0000 O   0  0  0  0  0  0  0  0  0  0  0  0
    4.3166    2.2293    0.0000 S   0  0  0  0  0  0  0  0  0  0  0  0
    4.2118    1.2348    0.0000 O   0  0  0  0  0  0  0  0  0  0  0  0
    4.4213    3.2238    0.0000 O   0  0  0  0  0  0  0  0  0  0  0  0
    5.3111    2.1246    0.0000 N   0  0  0  0  0  0  0  0  0  0  0  0
    5.7176    1.2110    0.0000 C   0  0  0  0  0  0  0  0  0  0  0  0
    5.1296    0.4021    0.0000 O   0  0  0  0  0  0  0  0  0  0  0  0
    6.7121    1.1062    0.0000 N   0  0  0  0  0  0  0  0  0  0  0  0
    7.3412    0.3290    0.0000 C   0  0  0  0  0  0  0  0  0  0  0  0
    8.1184    0.9581    0.0000 C   0  0  0  0  0  0  0  0  0  0  0  0
    9.1129    0.8534    0.0000 N   0  0  0  0  0  0  0  0  0  0  0  0
    9.5195   -0.0603    0.0000 C   0  0  0  0  0  0  0  0  0  0  0  0
    8.9315   -0.8692    0.0000 O   0  0  0  0  0  0  0  0  0  0  0  0
   10.5140   -0.1650    0.0000 C   0  0  0  0  0  0  0  0  0  0  0  0
   11.1019    0.6439    0.0000 N   0  0  0  0  0  0  0  0  0  0  0  0
   10.6954    1.5575    0.0000 O   0  0  0  0  0  0  0  0  0  0  0  0
   11.2833    2.3664    0.0000 C   0  0  0  0  0  0  0  0  0  0  0  0
   10.4744    2.9544    0.0000 C   0  0  0  0  0  0  0  0  0  0  0  0
   12.0922    1.7784    0.0000 C   0  0  0  0  0  0  0  0  0  0  0  0
   11.8713    3.1753    0.0000 C   0  0  0  0  0  0  0  0  0  0  0  0
   12.8658    3.0705    0.0000 O   0  0  0  0  0  0  0  0  0  0  0  0
   11.4648    4.0889    0.0000 O   0  0  0  0  0  0  0  0  0  0  0  0
   10.9205   -1.0786    0.0000 C   0  0  0  0  0  0  0  0  0  0  0  0
   11.8983   -1.2881    0.0000 C   0  0  0  0  0  0  0  0  0  0  0  0
   12.0075   -2.2825    0.0000 S   0  0  0  0  0  0  0  0  0  0  0  0
   11.0900   -2.6918    0.0000 C   0  0  0  0  0  0  0  0  0  0  0  0
   10.8818   -3.6698    0.0000 N   0  0  0  0  0  0  0  0  0  0  0  0
   10.4207   -1.9465    0.0000 N   0  0  0  0  0  0  0  0  0  0  0  0
    7.4893    1.7353    0.0000 C   0  0  0  0  0  0  0  0  0  0  0  0
    7.5941    2.7298    0.0000 O   0  0  0  0  0  0  0  0  0  0  0  0
  1  2  1  0
  2  7  1  0
  2  3  1  0
  3  4  2  0
  3  5  1  0
  5  6  1  0
  6  7  2  0
  7  8  1  0
  8 14  1  0
  8  9  2  0
  9 10  1  0
 10 11  2  0
 10 12  1  0
 12 13  2  0
 13 14  1  0
 12 15  1  0
  5 16  1  0
 16 17  2  0
 16 18  2  0
 16 19  1  0
 19 20  1  0
 20 21  2  0
 20 22  1  0
 22 43  1  0
 22 23  1  0
 23 24  1  0
 24 25  1  1
 25 26  1  0
 26 27  2  0
 26 28  1  0
 28 29  2  0
 29 30  1  0
 30 31  1  0
 31 32  1  0
 31 33  1  0
 31 34  1  0
 34 35  2  0
 34 36  1  0
 28 37  1  0
 37 42  1  0
 37 38  2  0
 38 39  1  0
 39 40  1  0
 40 41  1  0
 40 42  2  0
 24 43  1  0
 43 44  2  0
M  END
>  <SMILES>  (841) 
Cn1c(-c2cc(=O)c(O)c[nH]2)nn(S(=O)(=O)NC(=O)N2C[C@H](NC(=O)/C(=N\OC(C)(C)C(=O)O)c3csc(N)n3)C2=O)c1=O

>  <CollectionName>  (841) 
chembl

>  <LOG PLASMA PROTEIN BINDING (RAT) (% unbound)>  (841) 
0.173186268412

>  <Internal ID>  (841) 


>  <Source>  (841) 
AstraZeneca

$$$$
CHEMBL1090488
     RDKit          2D

 34 37  0  0  1  0  0  0  0  0999 V2000
   -1.7328   -0.0038    0.0000 C   0  0  0  0  0  0  0  0  0  0  0  0
   -0.8675    0.4975    0.0000 C   0  0  0  0  0  0  0  0  0  0  0  0
   -0.8675    1.5027    0.0000 C   0  0  0  0  0  0  0  0  0  0  0  0
   -0.0000    2.0104    0.0000 N   0  0  0  0  0  0  0  0  0  0  0  0
    0.8675    1.5027    0.0000 C   0  0  0  0  0  0  0  0  0  0  0  0
    0.8675    0.4975    0.0000 C   0  0  0  0  0  0  0  0  0  0  0  0
    1.7328   -0.0038    0.0000 C   0  0  0  0  0  0  0  0  0  0  0  0
    0.0000    0.0000    0.0000 C   0  0  0  0  0  0  0  0  0  0  0  0
   -0.6420   -0.7667    0.0000 O   0  0  0  0  0  0  0  0  0  0  0  0
    1.1236   -1.3417    0.0000 C   0  0  0  0  0  0  0  0  0  0  0  0
    2.1132   -1.1652    0.0000 C   0  0  0  0  0  0  0  0  0  0  0  0
    2.7553   -1.9318    0.0000 C   0  0  0  0  0  0  0  0  0  0  0  0
    2.4178   -2.8732    0.0000 C   0  0  0  0  0  0  0  0  0  0  0  0
    1.4282   -3.0497    0.0000 C   0  0  0  0  0  0  0  0  0  0  0  0
    0.7761   -2.2848    0.0000 C   0  0  0  0  0  0  0  0  0  0  0  0
   -0.0000    3.0104    0.0000 C   0  0  0  0  0  0  0  0  0  0  0  0
   -0.8660    3.5104    0.0000 O   0  0  0  0  0  0  0  0  0  0  0  0
    0.8660    3.5104    0.0000 C   0  0  0  0  0  0  0  0  0  0  0  0
    1.7806    3.1019    0.0000 C   0  0  0  0  0  0  0  0  0  0  0  0
    2.4523    3.8490    0.0000 N   0  0  0  0  0  0  0  0  0  0  0  0
    1.9480    4.7130    0.0000 C   0  0  0  0  0  0  0  0  0  0  0  0
    0.9695    4.5065    0.0000 C   0  0  0  0  0  0  0  0  0  0  0  0
    0.2265    5.1758    0.0000 C   0  0  0  0  0  0  0  0  0  0  0  0
   -0.7251    4.8683    0.0000 C   0  0  0  0  0  0  0  0  0  0  0  0
   -1.4711    5.5343    0.0000 C   0  0  0  0  0  0  0  0  0  0  0  0
   -1.2634    6.5178    0.0000 C   0  0  0  0  0  0  0  0  0  0  0  0
   -2.0094    7.1837    0.0000 F   0  0  0  0  0  0  0  0  0  0  0  0
   -0.3097    6.8353    0.0000 C   0  0  0  0  0  0  0  0  0  0  0  0
    0.4342    6.1593    0.0000 C   0  0  0  0  0  0  0  0  0  0  0  0
    1.3857    6.4667    0.0000 F   0  0  0  0  0  0  0  0  0  0  0  0
    3.4471    3.7472    0.0000 C   0  0  0  0  0  0  0  0  0  0  0  0
    4.4419    3.6453    0.0000 C   0  0  0  0  0  0  0  0  0  0  0  0
    3.3453    2.7524    0.0000 C   0  0  0  0  0  0  0  0  0  0  0  0
    3.5489    4.7420    0.0000 C   0  0  0  0  0  0  0  0  0  0  0  0
  2  1  1  6
  2  8  1  0
  2  3  1  0
  3  4  1  0
  4  5  1  0
  5  6  1  0
  6  7  1  6
  6  8  1  0
  8  9  1  6
  8 10  1  0
 10 15  1  0
 10 11  2  0
 11 12  1  0
 12 13  2  0
 13 14  1  0
 14 15  2  0
  4 16  1  0
 16 17  2  0
 18 16  1  1
 18 22  1  0
 18 19  1  0
 19 20  1  0
 20 21  1  0
 21 22  1  0
 22 23  1  6
 23 29  1  0
 23 24  2  0
 24 25  1  0
 25 26  2  0
 26 27  1  0
 26 28  1  0
 28 29  2  0
 29 30  1  0
 20 31  1  0
 31 32  1  0
 31 33  1  0
 31 34  1  0
M  END
>  <SMILES>  (842) 
C[C@@H]1CN(C(=O)[C@@H]2CN(C(C)(C)C)C[C@H]2c2ccc(F)cc2F)C[C@H](C)[C@@]1(O)c1ccccc1

>  <CollectionName>  (842) 
chembl

>  <LOG PLASMA PROTEIN BINDING (RAT) (% unbound)>  (842) 
1.27852496474

>  <Internal ID>  (842) 


>  <Source>  (842) 
AstraZeneca

$$$$
CHEMBL74355
     RDKit          2D

 27 29  0  0  1  0  0  0  0  0999 V2000
   -2.6128   -4.4949    0.0000 C   0  0  0  0  0  0  0  0  0  0  0  0
   -1.7439   -4.0000    0.0000 O   0  0  0  0  0  0  0  0  0  0  0  0
   -1.7380   -3.0000    0.0000 C   0  0  0  0  0  0  0  0  0  0  0  0
   -2.6070   -2.4948    0.0000 C   0  0  0  0  0  0  0  0  0  0  0  0
   -2.6011   -1.4948    0.0000 C   0  0  0  0  0  0  0  0  0  0  0  0
   -1.7351   -0.9948    0.0000 C   0  0  0  0  0  0  0  0  0  0  0  0
   -0.8660   -1.5000    0.0000 C   0  0  0  0  0  0  0  0  0  0  0  0
    0.0000   -1.0000    0.0000 C   0  0  0  0  0  0  0  0  0  0  0  0
    0.8660   -1.5000    0.0000 O   0  0  0  0  0  0  0  0  0  0  0  0
    0.0000    0.0000    0.0000 C   0  0  0  0  0  0  0  0  0  0  0  0
   -0.8675    0.4975    0.0000 C   0  0  0  0  0  0  0  0  0  0  0  0
   -0.8675    1.5027    0.0000 C   0  0  0  0  0  0  0  0  0  0  0  0
   -0.0000    2.0104    0.0000 N   0  0  0  0  0  0  0  0  0  0  0  0
   -0.0000    3.0104    0.0000 C   0  0  0  0  0  0  0  0  0  0  0  0
    0.8660    3.5104    0.0000 C   0  0  0  0  0  0  0  0  0  0  0  0
    0.8660    4.5104    0.0000 C   0  0  0  0  0  0  0  0  0  0  0  0
    1.7314    5.0117    0.0000 C   0  0  0  0  0  0  0  0  0  0  0  0
    1.7357    6.0117    0.0000 C   0  0  0  0  0  0  0  0  0  0  0  0
    0.8659    6.5156    0.0000 C   0  0  0  0  0  0  0  0  0  0  0  0
    0.8703    7.5155    0.0000 F   0  0  0  0  0  0  0  0  0  0  0  0
   -0.0082    6.0194    0.0000 C   0  0  0  0  0  0  0  0  0  0  0  0
   -0.0038    5.0143    0.0000 C   0  0  0  0  0  0  0  0  0  0  0  0
    0.8675    1.5027    0.0000 C   0  0  0  0  0  0  0  0  0  0  0  0
    0.8675    0.4975    0.0000 C   0  0  0  0  0  0  0  0  0  0  0  0
   -0.8631   -2.5051    0.0000 C   0  0  0  0  0  0  0  0  0  0  0  0
    0.0015   -3.0077    0.0000 O   0  0  0  0  0  0  0  0  0  0  0  0
   -0.0015   -4.0077    0.0000 C   0  0  0  0  0  0  0  0  0  0  0  0
  1  2  1  0
  2  3  1  0
  3 25  2  0
  3  4  1  0
  4  5  2  0
  5  6  1  0
  6  7  2  0
  7  8  1  0
  8  9  1  1
  8 10  1  0
 10 24  1  0
 10 11  1  0
 11 12  1  0
 12 13  1  0
 13 14  1  0
 14 15  1  0
 15 16  1  0
 16 22  1  0
 16 17  2  0
 17 18  1  0
 18 19  2  0
 19 20  1  0
 19 21  1  0
 21 22  2  0
 13 23  1  0
 23 24  1  0
  7 25  1  0
 25 26  1  0
 26 27  1  0
M  END
>  <SMILES>  (843) 
COc1cccc([C@H](O)C2CCN(CCc3ccc(F)cc3)CC2)c1OC

>  <CollectionName>  (843) 
chembl

>  <LOG PLASMA PROTEIN BINDING (RAT) (% unbound)>  (843) 
1.81331405895

>  <Internal ID>  (843) 


>  <Source>  (843) 
AstraZeneca

$$$$
CHEMBL1944691
     RDKit          2D

 34 37  0  0  1  0  0  0  0  0999 V2000
    1.7340    3.0138    0.0000 O   0  0  0  0  0  0  0  0  0  0  0  0
    0.8680    2.5138    0.0000 C   0  0  0  0  0  0  0  0  0  0  0  0
    0.0020    3.0138    0.0000 C   0  0  0  0  0  0  0  0  0  0  0  0
    0.0020    4.0138    0.0000 N   0  0  0  0  0  0  0  0  0  0  0  0
   -0.8641    4.5138    0.0000 C   0  0  0  0  0  0  0  0  0  0  0  0
   -0.8641    5.5138    0.0000 C   0  0  0  0  0  0  0  0  0  0  0  0
   -1.7301    6.0138    0.0000 C   0  0  0  0  0  0  0  0  0  0  0  0
   -1.7271    7.0190    0.0000 C   0  0  0  0  0  0  0  0  0  0  0  0
   -2.5931    7.5191    0.0000 C   0  0  0  0  0  0  0  0  0  0  0  0
   -3.4621    7.0241    0.0000 C   0  0  0  0  0  0  0  0  0  0  0  0
   -3.4651    6.0189    0.0000 C   0  0  0  0  0  0  0  0  0  0  0  0
   -4.3340    5.5240    0.0000 C   0  0  0  0  0  0  0  0  0  0  0  0
   -5.1971    6.0291    0.0000 N   0  0  0  0  0  0  0  0  0  0  0  0
   -6.0661    5.5343    0.0000 C   0  0  0  0  0  0  0  0  0  0  0  0
   -6.9291    6.0394    0.0000 C   0  0  0  0  0  0  0  0  0  0  0  0
   -7.7981    5.5445    0.0000 C   0  0  0  0  0  0  0  0  0  0  0  0
   -7.8054    4.5445    0.0000 C   0  0  0  0  0  0  0  0  0  0  0  0
   -8.6723    4.0458    0.0000 C   0  0  0  0  0  0  0  0  0  0  0  0
   -9.5405    4.5523    0.0000 C   0  0  0  0  0  0  0  0  0  0  0  0
   -9.5420    5.5574    0.0000 C   0  0  0  0  0  0  0  0  0  0  0  0
   -8.6664    6.0510    0.0000 C   0  0  0  0  0  0  0  0  0  0  0  0
   -8.6590    7.0509    0.0000 F   0  0  0  0  0  0  0  0  0  0  0  0
   -2.5991    5.5087    0.0000 C   0  0  0  0  0  0  0  0  0  0  0  0
    0.8680    1.5138    0.0000 C   0  0  0  0  0  0  0  0  0  0  0  0
    0.0000    1.0058    0.0000 C   0  0  0  0  0  0  0  0  0  0  0  0
    0.0000    0.0000    0.0000 C   0  0  0  0  0  0  0  0  0  0  0  0
    0.8680   -0.4978    0.0000 C   0  0  0  0  0  0  0  0  0  0  0  0
    0.8675   -1.4978    0.0000 O   0  0  0  0  0  0  0  0  0  0  0  0
    1.7360   -0.0012    0.0000 C   0  0  0  0  0  0  0  0  0  0  0  0
    2.6938   -0.3125    0.0000 N   0  0  0  0  0  0  0  0  0  0  0  0
    3.2858    0.5023    0.0000 C   0  0  0  0  0  0  0  0  0  0  0  0
    4.2858    0.5024    0.0000 O   0  0  0  0  0  0  0  0  0  0  0  0
    2.6938    1.3169    0.0000 S   0  0  0  0  0  0  0  0  0  0  0  0
    1.7360    1.0058    0.0000 C   0  0  0  0  0  0  0  0  0  0  0  0
  2  1  1  6
  2  3  1  0
  3  4  1  0
  4  5  1  0
  5  6  1  0
  6  7  1  0
  7 23  1  0
  7  8  2  0
  8  9  1  0
  9 10  2  0
 10 11  1  0
 11 12  1  0
 12 13  1  0
 13 14  1  0
 14 15  1  0
 15 16  1  0
 16 21  1  0
 16 17  2  0
 17 18  1  0
 18 19  2  0
 19 20  1  0
 20 21  2  0
 21 22  1  0
 11 23  2  0
  2 24  1  0
 24 34  1  0
 24 25  2  0
 25 26  1  0
 26 27  2  0
 27 28  1  0
 27 29  1  0
 29 34  2  0
 29 30  1  0
 30 31  1  0
 31 32  2  0
 31 33  1  0
 33 34  1  0
M  END
>  <SMILES>  (844) 
O=c1[nH]c2c(O)ccc([C@@H](O)CNCCc3cccc(CNCCc4ccccc4F)c3)c2s1

>  <CollectionName>  (844) 
chembl

>  <LOG PLASMA PROTEIN BINDING (RAT) (% unbound)>  (844) 
1.12742877785

>  <Internal ID>  (844) 


>  <Source>  (844) 
AstraZeneca

$$$$
CHEMBL1945033
     RDKit          2D

 33 36  0  0  1  0  0  0  0  0999 V2000
    1.7340    3.0138    0.0000 O   0  0  0  0  0  0  0  0  0  0  0  0
    0.8680    2.5138    0.0000 C   0  0  0  0  0  0  0  0  0  0  0  0
    0.0020    3.0138    0.0000 C   0  0  0  0  0  0  0  0  0  0  0  0
    0.0020    4.0138    0.0000 N   0  0  0  0  0  0  0  0  0  0  0  0
   -0.8641    4.5138    0.0000 C   0  0  0  0  0  0  0  0  0  0  0  0
   -0.8641    5.5138    0.0000 C   0  0  0  0  0  0  0  0  0  0  0  0
   -1.7301    6.0138    0.0000 C   0  0  0  0  0  0  0  0  0  0  0  0
   -1.7271    7.0190    0.0000 C   0  0  0  0  0  0  0  0  0  0  0  0
   -2.5931    7.5191    0.0000 C   0  0  0  0  0  0  0  0  0  0  0  0
   -3.4621    7.0241    0.0000 C   0  0  0  0  0  0  0  0  0  0  0  0
   -3.4651    6.0189    0.0000 C   0  0  0  0  0  0  0  0  0  0  0  0
   -4.3340    5.5240    0.0000 C   0  0  0  0  0  0  0  0  0  0  0  0
   -5.1971    6.0291    0.0000 N   0  0  0  0  0  0  0  0  0  0  0  0
   -6.0661    5.5343    0.0000 C   0  0  0  0  0  0  0  0  0  0  0  0
   -6.9291    6.0394    0.0000 C   0  0  0  0  0  0  0  0  0  0  0  0
   -7.7981    5.5445    0.0000 C   0  0  0  0  0  0  0  0  0  0  0  0
   -7.8010    4.5393    0.0000 C   0  0  0  0  0  0  0  0  0  0  0  0
   -8.6700    4.0443    0.0000 C   0  0  0  0  0  0  0  0  0  0  0  0
   -9.5360    4.5444    0.0000 C   0  0  0  0  0  0  0  0  0  0  0  0
   -9.5331    5.5496    0.0000 C   0  0  0  0  0  0  0  0  0  0  0  0
   -8.6641    6.0547    0.0000 N   0  0  0  0  0  0  0  0  0  0  0  0
   -2.5991    5.5087    0.0000 C   0  0  0  0  0  0  0  0  0  0  0  0
    0.8680    1.5138    0.0000 C   0  0  0  0  0  0  0  0  0  0  0  0
    0.0000    1.0058    0.0000 C   0  0  0  0  0  0  0  0  0  0  0  0
    0.0000    0.0000    0.0000 C   0  0  0  0  0  0  0  0  0  0  0  0
    0.8680   -0.4978    0.0000 C   0  0  0  0  0  0  0  0  0  0  0  0
    0.8675   -1.4978    0.0000 O   0  0  0  0  0  0  0  0  0  0  0  0
    1.7360   -0.0012    0.0000 C   0  0  0  0  0  0  0  0  0  0  0  0
    2.6938   -0.3125    0.0000 N   0  0  0  0  0  0  0  0  0  0  0  0
    3.2858    0.5023    0.0000 C   0  0  0  0  0  0  0  0  0  0  0  0
    4.2858    0.5024    0.0000 O   0  0  0  0  0  0  0  0  0  0  0  0
    2.6938    1.3169    0.0000 S   0  0  0  0  0  0  0  0  0  0  0  0
    1.7360    1.0058    0.0000 C   0  0  0  0  0  0  0  0  0  0  0  0
  2  1  1  6
  2  3  1  0
  3  4  1  0
  4  5  1  0
  5  6  1  0
  6  7  1  0
  7 22  1  0
  7  8  2  0
  8  9  1  0
  9 10  2  0
 10 11  1  0
 11 12  1  0
 12 13  1  0
 13 14  1  0
 14 15  1  0
 15 16  1  0
 16 21  1  0
 16 17  2  0
 17 18  1  0
 18 19  2  0
 19 20  1  0
 20 21  2  0
 11 22  2  0
  2 23  1  0
 23 33  1  0
 23 24  2  0
 24 25  1  0
 25 26  2  0
 26 27  1  0
 26 28  1  0
 28 33  2  0
 28 29  1  0
 29 30  1  0
 30 31  2  0
 30 32  1  0
 32 33  1  0
M  END
>  <SMILES>  (845) 
O=c1[nH]c2c(O)ccc([C@@H](O)CNCCc3cccc(CNCCc4ccccn4)c3)c2s1

>  <CollectionName>  (845) 
chembl

>  <LOG PLASMA PROTEIN BINDING (RAT) (% unbound)>  (845) 
1.17055505852

>  <Internal ID>  (845) 


>  <Source>  (845) 
AstraZeneca

$$$$
CHEMBL1963249
     RDKit          2D

 39 42  0  0  1  0  0  0  0  0999 V2000
    5.3528    2.0199    0.0000 C   0  0  0  0  0  0  0  0  0  0  0  0
    4.4833    1.5259    0.0000 C   0  0  0  0  0  0  0  0  0  0  0  0
    3.5860    2.0535    0.0000 C   0  0  0  0  0  0  0  0  0  0  0  0
    2.6884    1.5365    0.0000 N   0  0  0  0  0  0  0  0  0  0  0  0
    1.7920    2.0625    0.0000 C   0  0  0  0  0  0  0  0  0  0  0  0
    1.7957    3.0625    0.0000 C   0  0  0  0  0  0  0  0  0  0  0  0
    2.2989    3.9289    0.0000 C   0  0  0  0  0  0  0  0  0  0  0  0
    1.2989    3.9325    0.0000 C   0  0  0  0  0  0  0  0  0  0  0  0
    0.8961    1.5456    0.0000 C   0  0  0  0  0  0  0  0  0  0  0  0
    0.0314    2.0479    0.0000 O   0  0  0  0  0  0  0  0  0  0  0  0
    0.8908    0.5084    0.0000 N   0  0  0  0  0  0  0  0  0  0  0  0
    0.0273    1.0128    0.0000 C   0  0  0  0  0  0  0  0  0  0  0  0
    0.0000    0.0000    0.0000 C   0  0  0  0  0  0  0  0  0  0  0  0
   -0.8628    0.5056    0.0000 C   0  0  0  0  0  0  0  0  0  0  0  0
   -0.0081   -1.0307    0.0000 C   0  0  0  0  0  0  0  0  0  0  0  0
   -0.8776   -1.5247    0.0000 O   0  0  0  0  0  0  0  0  0  0  0  0
    0.8848   -1.5534    0.0000 N   0  0  0  0  0  0  0  0  0  0  0  0
    0.8817   -2.5667    0.0000 C   0  0  0  0  0  0  0  0  0  0  0  0
    0.0134   -3.0628    0.0000 C   0  0  0  0  0  0  0  0  0  0  0  0
    0.0089   -4.0628    0.0000 C   0  0  0  0  0  0  0  0  0  0  0  0
    0.8719   -4.5679    0.0000 C   0  0  0  0  0  0  0  0  0  0  0  0
    0.8717   -5.5680    0.0000 C   0  0  0  0  0  0  0  0  0  0  0  0
   -0.0004   -6.0679    0.0000 C   0  0  0  0  0  0  0  0  0  0  0  0
   -0.0005   -7.0679    0.0000 F   0  0  0  0  0  0  0  0  0  0  0  0
   -0.8722   -5.5678    0.0000 C   0  0  0  0  0  0  0  0  0  0  0  0
   -0.8632   -4.5627    0.0000 C   0  0  0  0  0  0  0  0  0  0  0  0
    1.7604   -3.0811    0.0000 C   0  0  0  0  0  0  0  0  0  0  0  0
    1.7588   -4.0811    0.0000 O   0  0  0  0  0  0  0  0  0  0  0  0
    2.6250   -2.5786    0.0000 N   0  0  0  0  0  0  0  0  0  0  0  0
    3.5076   -3.1209    0.0000 C   0  0  0  0  0  0  0  0  0  0  0  0
    4.4178   -2.6251    0.0000 C   0  0  0  0  0  0  0  0  0  0  0  0
    4.4457   -1.5868    0.0000 C   0  0  0  0  0  0  0  0  0  0  0  0
    5.3539   -1.0734    0.0000 C   0  0  0  0  0  0  0  0  0  0  0  0
    6.2396   -1.6026    0.0000 C   0  0  0  0  0  0  0  0  0  0  0  0
    7.1464   -1.1002    0.0000 C   0  0  0  0  0  0  0  0  0  0  0  0
    7.1619   -0.0629    0.0000 C   0  0  0  0  0  0  0  0  0  0  0  0
    6.2705    0.4720    0.0000 C   0  0  0  0  0  0  0  0  0  0  0  0
    5.3694   -0.0361    0.0000 C   0  0  0  0  0  0  0  0  0  0  0  0
    4.4772    0.4872    0.0000 O   0  0  0  0  0  0  0  0  0  0  0  0
  2  1  1  1
  2 39  1  0
  2  3  1  0
  3  4  1  0
  4  5  1  0
  5  6  1  6
  6  8  1  0
  6  7  1  0
  7  8  1  0
  5  9  1  0
  9 10  2  0
  9 11  1  0
 11 12  1  0
 11 13  1  0
 13 14  1  1
 13 15  1  0
 15 16  2  0
 15 17  1  0
 17 18  1  0
 18 19  1  1
 19 20  1  0
 20 26  1  0
 20 21  2  0
 21 22  1  0
 22 23  2  0
 23 24  1  0
 23 25  1  0
 25 26  2  0
 18 27  1  0
 27 28  2  0
 27 29  1  0
 29 30  1  0
 30 31  1  0
 31 32  1  0
 32 33  1  0
 33 38  2  0
 33 34  1  0
 34 35  2  0
 35 36  1  0
 36 37  2  0
 37 38  1  0
 38 39  1  0
M  END
>  <SMILES>  (846) 
C[C@@H]1CN[C@@H](C2CC2)C(=O)N(C)[C@H](C)C(=O)N[C@H](Cc2ccc(F)cc2)C(=O)NCCCc2ccccc2O1

>  <CollectionName>  (846) 
chembl

>  <LOG PLASMA PROTEIN BINDING (RAT) (% unbound)>  (846) 
1.17055505852

>  <Internal ID>  (846) 


>  <Source>  (846) 
AstraZeneca

$$$$
CHEMBL214957
     RDKit          2D

 33 37  0  0  0  0  0  0  0  0999 V2000
   -4.3345    1.5083    0.0000 C   0  0  0  0  0  0  0  0  0  0  0  0
   -3.4700    1.0058    0.0000 O   0  0  0  0  0  0  0  0  0  0  0  0
   -2.6025    1.5032    0.0000 C   0  0  0  0  0  0  0  0  0  0  0  0
   -1.7350    0.9955    0.0000 C   0  0  0  0  0  0  0  0  0  0  0  0
   -0.8675    1.5032    0.0000 C   0  0  0  0  0  0  0  0  0  0  0  0
   -0.8675    2.5084    0.0000 C   0  0  0  0  0  0  0  0  0  0  0  0
   -1.7350    3.0059    0.0000 C   0  0  0  0  0  0  0  0  0  0  0  0
   -2.6025    2.5084    0.0000 C   0  0  0  0  0  0  0  0  0  0  0  0
   -3.4678    3.0097    0.0000 O   0  0  0  0  0  0  0  0  0  0  0  0
   -4.3346    2.5109    0.0000 C   0  0  0  0  0  0  0  0  0  0  0  0
   -5.1999    3.0122    0.0000 C   0  0  0  0  0  0  0  0  0  0  0  0
   -6.0666    2.5135    0.0000 N   0  0  0  0  0  0  0  0  0  0  0  0
   -6.9808    2.9199    0.0000 C   0  0  0  0  0  0  0  0  0  0  0  0
   -7.6541    2.1805    0.0000 C   0  0  0  0  0  0  0  0  0  0  0  0
   -7.1559    1.3117    0.0000 C   0  0  0  0  0  0  0  0  0  0  0  0
   -6.1751    1.5147    0.0000 C   0  0  0  0  0  0  0  0  0  0  0  0
   -0.0000    1.0058    0.0000 N   0  0  0  0  0  0  0  0  0  0  0  0
    0.0000    0.0000    0.0000 C   0  0  0  0  0  0  0  0  0  0  0  0
    0.8680   -0.4978    0.0000 N   0  0  0  0  0  0  0  0  0  0  0  0
    1.7360   -0.0012    0.0000 C   0  0  0  0  0  0  0  0  0  0  0  0
    2.6938   -0.3125    0.0000 C   0  0  0  0  0  0  0  0  0  0  0  0
    3.2858    0.5023    0.0000 C   0  0  0  0  0  0  0  0  0  0  0  0
    2.6938    1.3169    0.0000 S   0  0  0  0  0  0  0  0  0  0  0  0
    1.7360    1.0058    0.0000 C   0  0  0  0  0  0  0  0  0  0  0  0
    0.8680    1.5138    0.0000 C   0  0  0  0  0  0  0  0  0  0  0  0
    0.8680    2.5138    0.0000 O   0  0  0  0  0  0  0  0  0  0  0  0
    4.2858    0.5024    0.0000 C   0  0  0  0  0  0  0  0  0  0  0  0
    4.7871   -0.3629    0.0000 C   0  0  0  0  0  0  0  0  0  0  0  0
    5.7871   -0.3672    0.0000 C   0  0  0  0  0  0  0  0  0  0  0  0
    6.2910    0.5026    0.0000 C   0  0  0  0  0  0  0  0  0  0  0  0
    7.2909    0.4983    0.0000 Cl  0  0  0  0  0  0  0  0  0  0  0  0
    5.7947    1.3767    0.0000 C   0  0  0  0  0  0  0  0  0  0  0  0
    4.7896    1.3722    0.0000 C   0  0  0  0  0  0  0  0  0  0  0  0
  1  2  1  0
  2  3  1  0
  3  8  2  0
  3  4  1  0
  4  5  2  0
  5  6  1  0
  6  7  2  0
  7  8  1  0
  8  9  1  0
  9 10  1  0
 10 11  1  0
 11 12  1  0
 12 16  1  0
 12 13  1  0
 13 14  1  0
 14 15  1  0
 15 16  1  0
  5 17  1  0
 17 25  1  0
 17 18  1  0
 18 19  2  0
 19 20  1  0
 20 24  2  0
 20 21  1  0
 21 22  2  0
 22 23  1  0
 23 24  1  0
 24 25  1  0
 25 26  2  0
 22 27  1  0
 27 33  1  0
 27 28  2  0
 28 29  1  0
 29 30  2  0
 30 31  1  0
 30 32  1  0
 32 33  2  0
M  END
>  <SMILES>  (847) 
COc1cc(-n2cnc3cc(-c4ccc(Cl)cc4)sc3c2=O)ccc1OCCN1CCCC1

>  <CollectionName>  (847) 
chembl

>  <LOG PLASMA PROTEIN BINDING (RAT) (% unbound)>  (847) 
-0.00436480540245

>  <Internal ID>  (847) 


>  <Source>  (847) 
AstraZeneca

$$$$
CHEMBL559968
     RDKit          2D

 27 29  0  0  0  0  0  0  0  0999 V2000
    6.9813    6.9718    0.0000 Cl  0  0  0  0  0  0  0  0  0  0  0  0
    6.1205    7.4807    0.0000 C   0  0  0  0  0  0  0  0  0  0  0  0
    6.1338    8.4858    0.0000 C   0  0  0  0  0  0  0  0  0  0  0  0
    5.2641    8.9896    0.0000 C   0  0  0  0  0  0  0  0  0  0  0  0
    4.3899    8.4935    0.0000 C   0  0  0  0  0  0  0  0  0  0  0  0
    4.3854    7.4935    0.0000 C   0  0  0  0  0  0  0  0  0  0  0  0
    5.2462    6.9846    0.0000 C   0  0  0  0  0  0  0  0  0  0  0  0
    5.2374    5.9846    0.0000 C   0  0  0  0  0  0  0  0  0  0  0  0
    4.3670    5.4923    0.0000 C   0  0  0  0  0  0  0  0  0  0  0  0
    4.3581    4.4923    0.0000 N   0  0  0  0  0  0  0  0  0  0  0  0
    3.4877    4.0000    0.0000 C   0  0  0  0  0  0  0  0  0  0  0  0
    2.6261    4.5077    0.0000 O   0  0  0  0  0  0  0  0  0  0  0  0
    3.4788    3.0001    0.0000 C   0  0  0  0  0  0  0  0  0  0  0  0
    2.6025    2.5078    0.0000 C   0  0  0  0  0  0  0  0  0  0  0  0
    2.6025    1.5026    0.0000 C   0  0  0  0  0  0  0  0  0  0  0  0
    3.4700    0.9949    0.0000 C   0  0  0  0  0  0  0  0  0  0  0  0
    4.3376    1.4923    0.0000 C   0  0  0  0  0  0  0  0  0  0  0  0
    4.3464    2.4923    0.0000 C   0  0  0  0  0  0  0  0  0  0  0  0
    5.2161    2.9859    0.0000 Cl  0  0  0  0  0  0  0  0  0  0  0  0
    1.7350    1.0052    0.0000 N   0  0  0  0  0  0  0  0  0  0  0  0
    0.8675    1.5129    0.0000 N   0  0  0  0  0  0  0  0  0  0  0  0
    0.0000    1.0052    0.0000 C   0  0  0  0  0  0  0  0  0  0  0  0
    0.0000    0.0000    0.0000 C   0  0  0  0  0  0  0  0  0  0  0  0
   -0.8653   -0.5013    0.0000 O   0  0  0  0  0  0  0  0  0  0  0  0
    0.8675   -0.4975    0.0000 N   0  0  0  0  0  0  0  0  0  0  0  0
    1.7350    0.0000    0.0000 C   0  0  0  0  0  0  0  0  0  0  0  0
    2.6003   -0.5013    0.0000 O   0  0  0  0  0  0  0  0  0  0  0  0
  1  2  1  0
  2  7  2  0
  2  3  1  0
  3  4  2  0
  4  5  1  0
  5  6  2  0
  6  7  1  0
  7  8  1  0
  8  9  1  0
  9 10  1  0
 10 11  1  0
 11 12  2  0
 11 13  1  0
 13 18  1  0
 13 14  2  0
 14 15  1  0
 15 16  2  0
 16 17  1  0
 17 18  2  0
 18 19  1  0
 15 20  1  0
 20 26  1  0
 20 21  1  0
 21 22  2  0
 22 23  1  0
 23 24  2  0
 23 25  1  0
 25 26  1  0
 26 27  2  0
M  END
>  <SMILES>  (848) 
O=C(NCCc1ccccc1Cl)c1cc(-n2ncc(=O)[nH]c2=O)ccc1Cl

>  <CollectionName>  (848) 
chembl

>  <LOG PLASMA PROTEIN BINDING (RAT) (% unbound)>  (848) 
0.350248018334

>  <Internal ID>  (848) 


>  <Source>  (848) 
AstraZeneca

$$$$
CHEMBL564607
     RDKit          2D

 30 34  0  0  0  0  0  0  0  0999 V2000
   -1.4602   11.3843    0.0000 O   0  0  0  0  0  0  0  0  0  0  0  0
   -0.6067   10.8632    0.0000 C   0  0  0  0  0  0  0  0  0  0  0  0
    0.2713   11.3419    0.0000 O   0  0  0  0  0  0  0  0  0  0  0  0
   -0.6312    9.8635    0.0000 C   0  0  0  0  0  0  0  0  0  0  0  0
    0.2283    9.3423    0.0000 C   0  0  0  0  0  0  0  0  0  0  0  0
    0.2039    8.3426    0.0000 C   0  0  0  0  0  0  0  0  0  0  0  0
   -0.6714    7.8588    0.0000 C   0  0  0  0  0  0  0  0  0  0  0  0
   -1.5309    8.3800    0.0000 C   0  0  0  0  0  0  0  0  0  0  0  0
   -1.5151    9.3850    0.0000 C   0  0  0  0  0  0  0  0  0  0  0  0
   -0.6915    6.8590    0.0000 C   0  0  0  0  0  0  0  0  0  0  0  0
   -1.5734    6.3766    0.0000 C   0  0  0  0  0  0  0  0  0  0  0  0
   -1.5935    5.3768    0.0000 C   0  0  0  0  0  0  0  0  0  0  0  0
   -0.7407    4.8544    0.0000 C   0  0  0  0  0  0  0  0  0  0  0  0
   -0.7652    3.8547    0.0000 Cl  0  0  0  0  0  0  0  0  0  0  0  0
    0.1411    5.3368    0.0000 C   0  0  0  0  0  0  0  0  0  0  0  0
    0.1702    6.3415    0.0000 C   0  0  0  0  0  0  0  0  0  0  0  0
    0.9939    4.8145    0.0000 C   0  0  0  0  0  0  0  0  0  0  0  0
    1.8726    5.2918    0.0000 O   0  0  0  0  0  0  0  0  0  0  0  0
    0.9679    3.8148    0.0000 N   0  0  0  0  0  0  0  0  0  0  0  0
    1.8206    3.2925    0.0000 C   0  0  0  0  0  0  0  0  0  0  0  0
    1.7946    2.2928    0.0000 C   0  0  0  0  0  0  0  0  0  0  0  0
    0.8413    1.9596    0.0000 C   0  0  0  0  0  0  0  0  0  0  0  0
    0.8471    0.9032    0.0000 C   0  0  0  0  0  0  0  0  0  0  0  0
    0.0000    0.0000    0.0000 C   0  0  0  0  0  0  0  0  0  0  0  0
    1.0628    0.2973    0.0000 C   0  0  0  0  0  0  0  0  0  0  0  0
    2.0572   -0.0972    0.0000 C   0  0  0  0  0  0  0  0  0  0  0  0
    2.7750    0.8067    0.0000 C   0  0  0  0  0  0  0  0  0  0  0  0
    1.7870    0.5617    0.0000 C   0  0  0  0  0  0  0  0  0  0  0  0
    2.7828    1.8886    0.0000 C   0  0  0  0  0  0  0  0  0  0  0  0
    1.0593    1.4236    0.0000 C   0  0  0  0  0  0  0  0  0  0  0  0
  1  2  1  0
  2  3  2  0
  2  4  1  0
  4  9  2  0
  4  5  1  0
  5  6  2  0
  6  7  1  0
  7  8  2  0
  8  9  1  0
  7 10  1  0
 10 16  1  0
 10 11  2  0
 11 12  1  0
 12 13  2  0
 13 14  1  0
 13 15  1  0
 15 16  2  0
 15 17  1  0
 17 18  2  0
 17 19  1  0
 19 20  1  0
 20 21  1  0
 21 29  1  0
 21 30  1  0
 21 22  1  0
 22 23  1  0
 23 28  1  0
 23 24  1  0
 24 25  1  0
 25 26  1  0
 26 27  1  0
 27 28  1  0
 27 29  1  0
 25 30  1  0
M  END
>  <SMILES>  (849) 
O=C(O)c1ccc(-c2ccc(Cl)c(C(=O)NCC34CC5CC(CC(C5)C3)C4)c2)cc1

>  <CollectionName>  (849) 
chembl

>  <LOG PLASMA PROTEIN BINDING (RAT) (% unbound)>  (849) 
-0.130768280269

>  <Internal ID>  (849) 


>  <Source>  (849) 
AstraZeneca

$$$$
CHEMBL1916024
     RDKit          2D

 31 35  0  0  0  0  0  0  0  0999 V2000
    5.2657    2.6404    0.0000 N   0  0  0  0  0  0  0  0  0  0  0  0
    4.2888    2.4267    0.0000 C   0  0  0  0  0  0  0  0  0  0  0  0
    3.9866    1.4681    0.0000 N   0  0  0  0  0  0  0  0  0  0  0  0
    3.0028    1.2620    0.0000 C   0  0  0  0  0  0  0  0  0  0  0  0
    2.3281    2.0071    0.0000 N   0  0  0  0  0  0  0  0  0  0  0  0
    2.6371    2.9582    0.0000 C   0  0  0  0  0  0  0  0  0  0  0  0
    1.9658    3.6994    0.0000 N   0  0  0  0  0  0  0  0  0  0  0  0
    3.6140    3.1718    0.0000 C   0  0  0  0  0  0  0  0  0  0  0  0
    3.9189    4.1242    0.0000 N   0  0  0  0  0  0  0  0  0  0  0  0
    3.2444    4.8625    0.0000 C   0  0  0  0  0  0  0  0  0  0  0  0
    3.5508    5.8198    0.0000 C   0  0  0  0  0  0  0  0  0  0  0  0
    4.5318    6.0389    0.0000 O   0  0  0  0  0  0  0  0  0  0  0  0
    5.2032    5.2909    0.0000 C   0  0  0  0  0  0  0  0  0  0  0  0
    4.8968    4.3335    0.0000 C   0  0  0  0  0  0  0  0  0  0  0  0
    2.6938    0.3110    0.0000 C   0  0  0  0  0  0  0  0  0  0  0  0
    3.2858   -0.5036    0.0000 N   0  0  0  0  0  0  0  0  0  0  0  0
    2.6938   -1.3184    0.0000 N   0  0  0  0  0  0  0  0  0  0  0  0
    3.0028   -2.2695    0.0000 C   0  0  0  0  0  0  0  0  0  0  0  0
    2.3336   -3.0126    0.0000 C   0  0  0  0  0  0  0  0  0  0  0  0
    1.3551   -2.8060    0.0000 C   0  0  0  0  0  0  0  0  0  0  0  0
    0.6827   -3.5463    0.0000 C   0  0  0  0  0  0  0  0  0  0  0  0
    0.9919   -4.5027    0.0000 C   0  0  0  0  0  0  0  0  0  0  0  0
    1.9735   -4.7190    0.0000 C   0  0  0  0  0  0  0  0  0  0  0  0
    2.6428   -3.9691    0.0000 C   0  0  0  0  0  0  0  0  0  0  0  0
    3.6212   -4.1755    0.0000 F   0  0  0  0  0  0  0  0  0  0  0  0
    1.7360   -1.0071    0.0000 C   0  0  0  0  0  0  0  0  0  0  0  0
    0.8680   -1.5037    0.0000 N   0  0  0  0  0  0  0  0  0  0  0  0
    0.0000   -1.0058    0.0000 C   0  0  0  0  0  0  0  0  0  0  0  0
    0.0000    0.0000    0.0000 C   0  0  0  0  0  0  0  0  0  0  0  0
    0.8680    0.5079    0.0000 C   0  0  0  0  0  0  0  0  0  0  0  0
    1.7360    0.0000    0.0000 C   0  0  0  0  0  0  0  0  0  0  0  0
  1  2  1  0
  2  8  2  0
  2  3  1  0
  3  4  2  0
  4  5  1  0
  5  6  2  0
  6  7  1  0
  6  8  1  0
  8  9  1  0
  9 14  1  0
  9 10  1  0
 10 11  1  0
 11 12  1  0
 12 13  1  0
 13 14  1  0
  4 15  1  0
 15 31  1  0
 15 16  2  0
 16 17  1  0
 17 18  1  0
 18 19  1  0
 19 24  1  0
 19 20  2  0
 20 21  1  0
 21 22  2  0
 22 23  1  0
 23 24  2  0
 24 25  1  0
 17 26  1  0
 26 31  2  0
 26 27  1  0
 27 28  2  0
 28 29  1  0
 29 30  2  0
 30 31  1  0
M  END
>  <SMILES>  (850) 
Nc1nc(-c2nn(Cc3ccccc3F)c3ncccc23)nc(N)c1N1CCOCC1

>  <CollectionName>  (850) 
chembl

>  <LOG PLASMA PROTEIN BINDING (RAT) (% unbound)>  (850) 
1.06632592536

>  <Internal ID>  (850) 


>  <Source>  (850) 
AstraZeneca

$$$$
CHEMBL1916260
     RDKit          2D

 28 30  0  0  0  0  0  0  0  0999 V2000
   -1.3972   -4.8591    0.0000 C   0  0  0  0  0  0  0  0  0  0  0  0
   -0.8083   -4.0508    0.0000 C   0  0  0  0  0  0  0  0  0  0  0  0
   -1.2138   -3.1367    0.0000 C   0  0  0  0  0  0  0  0  0  0  0  0
   -2.2082   -3.0309    0.0000 C   0  0  0  0  0  0  0  0  0  0  0  0
   -2.7971   -3.8391    0.0000 C   0  0  0  0  0  0  0  0  0  0  0  0
   -0.6250   -2.3285    0.0000 N   0  0  0  0  0  0  0  0  0  0  0  0
   -1.0305   -1.4144    0.0000 C   0  0  0  0  0  0  0  0  0  0  0  0
   -2.0249   -1.3086    0.0000 O   0  0  0  0  0  0  0  0  0  0  0  0
    0.0000    0.0000    0.0000 C   0  0  0  0  0  0  0  0  0  0  0  0
    1.0015    0.0000    0.0000 C   0  0  0  0  0  0  0  0  0  0  0  0
    1.3133    0.9519    0.0000 N   0  0  0  0  0  0  0  0  0  0  0  0
    0.5008    1.5428    0.0000 N   0  0  0  0  0  0  0  0  0  0  0  0
   -0.3065    0.9519    0.0000 C   0  0  0  0  0  0  0  0  0  0  0  0
   -1.9711    1.4920    0.0000 N   0  0  0  0  0  0  0  0  0  0  0  0
   -2.7139    0.8225    0.0000 S   0  0  0  0  0  0  0  0  0  0  0  0
   -3.3834    1.5654    0.0000 O   0  0  0  0  0  0  0  0  0  0  0  0
   -2.0445    0.0796    0.0000 O   0  0  0  0  0  0  0  0  0  0  0  0
   -3.4568    0.1530    0.0000 C   0  0  0  0  0  0  0  0  0  0  0  0
   -3.3526   -0.8432    0.0000 C   0  0  0  0  0  0  0  0  0  0  0  0
   -4.2667   -1.2521    0.0000 C   0  0  0  0  0  0  0  0  0  0  0  0
   -4.9352   -0.5083    0.0000 C   0  0  0  0  0  0  0  0  0  0  0  0
   -4.4396    0.3605    0.0000 C   0  0  0  0  0  0  0  0  0  0  0  0
    0.4993    2.5428    0.0000 C   0  0  0  0  0  0  0  0  0  0  0  0
   -0.3735    3.0415    0.0000 C   0  0  0  0  0  0  0  0  0  0  0  0
   -0.3751    4.0415    0.0000 C   0  0  0  0  0  0  0  0  0  0  0  0
    0.4873    4.5479    0.0000 C   0  0  0  0  0  0  0  0  0  0  0  0
    1.3600    4.0492    0.0000 C   0  0  0  0  0  0  0  0  0  0  0  0
    1.3705    3.0441    0.0000 C   0  0  0  0  0  0  0  0  0  0  0  0
  1  2  1  0
  2  3  1  0
  3  4  1  0
  4  5  1  0
  3  6  1  0
  6  7  1  0
  7  8  2  0
  7  9  1  0
  9 13  2  0
  9 10  1  0
 10 11  2  0
 11 12  1  0
 12 13  1  0
 13 14  1  0
 14 15  1  0
 15 16  2  0
 15 17  2  0
 15 18  1  0
 18 22  1  0
 18 19  1  0
 19 20  1  0
 20 21  1  0
 21 22  1  0
 12 23  1  0
 23 28  1  0
 23 24  2  0
 24 25  1  0
 25 26  2  0
 26 27  1  0
 27 28  2  0
M  END
>  <SMILES>  (851) 
CCC(CC)NC(=O)c1cnn(-c2ccccc2)c1NS(=O)(=O)C1CCCC1

>  <CollectionName>  (851) 
chembl

>  <LOG PLASMA PROTEIN BINDING (RAT) (% unbound)>  (851) 
-0.677780705266

>  <Internal ID>  (851) 


>  <Source>  (851) 
AstraZeneca

$$$$
CHEMBL1916280
     RDKit          2D

 30 32  0  0  1  0  0  0  0  0999 V2000
   -0.9555   -4.2529    0.0000 C   0  0  0  0  0  0  0  0  0  0  0  0
   -0.3667   -3.4446    0.0000 C   0  0  0  0  0  0  0  0  0  0  0  0
   -0.7722   -2.5306    0.0000 C   0  0  0  0  0  0  0  0  0  0  0  0
   -1.7666   -2.4247    0.0000 C   0  0  0  0  0  0  0  0  0  0  0  0
   -0.1833   -1.7223    0.0000 N   0  0  0  0  0  0  0  0  0  0  0  0
   -0.5889   -0.8082    0.0000 C   0  0  0  0  0  0  0  0  0  0  0  0
   -1.5832   -0.7024    0.0000 O   0  0  0  0  0  0  0  0  0  0  0  0
    0.0000    0.0000    0.0000 C   0  0  0  0  0  0  0  0  0  0  0  0
   -0.3065    0.9519    0.0000 C   0  0  0  0  0  0  0  0  0  0  0  0
   -1.2577    1.2605    0.0000 C   0  0  0  0  0  0  0  0  0  0  0  0
    0.5008    1.5428    0.0000 N   0  0  0  0  0  0  0  0  0  0  0  0
    1.3133    0.9519    0.0000 N   0  0  0  0  0  0  0  0  0  0  0  0
    1.0015   -0.0000    0.0000 C   0  0  0  0  0  0  0  0  0  0  0  0
    1.5883   -0.8097    0.0000 N   0  0  0  0  0  0  0  0  0  0  0  0
    2.5830   -0.7064    0.0000 S   0  0  0  0  0  0  0  0  0  0  0  0
    2.4796    0.2883    0.0000 O   0  0  0  0  0  0  0  0  0  0  0  0
    3.5776   -0.6030    0.0000 O   0  0  0  0  0  0  0  0  0  0  0  0
    2.6863   -1.7010    0.0000 C   0  0  0  0  0  0  0  0  0  0  0  0
    3.6053   -2.1083    0.0000 C   0  0  0  0  0  0  0  0  0  0  0  0
    3.7087   -3.1029    0.0000 C   0  0  0  0  0  0  0  0  0  0  0  0
    2.9024   -3.6945    0.0000 C   0  0  0  0  0  0  0  0  0  0  0  0
    3.0101   -4.6887    0.0000 C   0  0  0  0  0  0  0  0  0  0  0  0
    1.9834   -3.2873    0.0000 C   0  0  0  0  0  0  0  0  0  0  0  0
    1.8707   -2.2885    0.0000 C   0  0  0  0  0  0  0  0  0  0  0  0
    2.9784    1.4903    0.0000 C   0  0  0  0  0  0  0  0  0  0  0  0
    3.1859    2.4739    0.0000 C   0  0  0  0  0  0  0  0  0  0  0  0
    4.1374    2.7816    0.0000 C   0  0  0  0  0  0  0  0  0  0  0  0
    4.8835    2.1157    0.0000 C   0  0  0  0  0  0  0  0  0  0  0  0
    4.6761    1.1322    0.0000 C   0  0  0  0  0  0  0  0  0  0  0  0
    3.7224    0.8145    0.0000 C   0  0  0  0  0  0  0  0  0  0  0  0
  1  2  1  0
  2  3  1  0
  3  4  1  0
  3  5  1  0
  5  6  1  0
  6  7  2  0
  6  8  1  0
  8 13  2  0
  8  9  1  0
  9 10  1  0
  9 11  2  0
 11 12  1  0
 12 13  1  0
 13 14  1  0
 14 15  1  0
 15 16  2  0
 15 17  2  0
 15 18  1  0
 18 24  1  0
 18 19  2  0
 19 20  1  0
 20 21  2  0
 21 22  1  0
 21 23  1  0
 23 24  2  0
 12 25  1  0
 25 30  1  0
 25 26  2  0
 26 27  1  0
 27 28  2  0
 28 29  1  0
 29 30  2  0
M  END
>  <SMILES>  (852) 
CCC(C)NC(=O)c1c(C)nn(-c2ccccc2)c1NS(=O)(=O)c1ccc(C)cc1

>  <CollectionName>  (852) 
chembl

>  <LOG PLASMA PROTEIN BINDING (RAT) (% unbound)>  (852) 
0.525044807037

>  <Internal ID>  (852) 


>  <Source>  (852) 
AstraZeneca

$$$$
CHEMBL1916288
     RDKit          2D

 34 36  0  0  1  0  0  0  0  0999 V2000
   -2.2082   -3.0309    0.0000 C   0  0  0  0  0  0  0  0  0  0  0  0
   -2.6137   -2.1168    0.0000 C   0  0  0  0  0  0  0  0  0  0  0  0
   -2.0249   -1.3086    0.0000 N   0  0  0  0  0  0  0  0  0  0  0  0
   -1.0305   -1.4144    0.0000 C   0  0  0  0  0  0  0  0  0  0  0  0
   -0.6250   -2.3285    0.0000 O   0  0  0  0  0  0  0  0  0  0  0  0
    0.0000    0.0000    0.0000 C   0  0  0  0  0  0  0  0  0  0  0  0
   -0.3065    0.9519    0.0000 C   0  0  0  0  0  0  0  0  0  0  0  0
   -1.2577    1.2605    0.0000 C   0  0  0  0  0  0  0  0  0  0  0  0
    0.5008    1.5428    0.0000 N   0  0  0  0  0  0  0  0  0  0  0  0
    1.3133    0.9519    0.0000 N   0  0  0  0  0  0  0  0  0  0  0  0
    1.0015   -0.0000    0.0000 C   0  0  0  0  0  0  0  0  0  0  0  0
    2.0284   -1.4170    0.0000 N   0  0  0  0  0  0  0  0  0  0  0  0
    1.6206   -2.3301    0.0000 S   0  0  0  0  0  0  0  0  0  0  0  0
    2.5337   -2.7379    0.0000 O   0  0  0  0  0  0  0  0  0  0  0  0
    0.7076   -1.9222    0.0000 O   0  0  0  0  0  0  0  0  0  0  0  0
    1.2128   -3.2431    0.0000 C   0  0  0  0  0  0  0  0  0  0  0  0
    0.2127   -3.3441    0.0000 C   0  0  0  0  0  0  0  0  0  0  0  0
   -0.1952   -4.2571    0.0000 C   0  0  0  0  0  0  0  0  0  0  0  0
    0.3869   -5.0703    0.0000 C   0  0  0  0  0  0  0  0  0  0  0  0
    1.3870   -4.9694    0.0000 C   0  0  0  0  0  0  0  0  0  0  0  0
    1.8050   -4.0553    0.0000 C   0  0  0  0  0  0  0  0  0  0  0  0
   -0.0250   -5.9815    0.0000 C   0  0  0  0  0  0  0  0  0  0  0  0
   -0.4368   -6.8928    0.0000 N   0  0  0  0  0  0  0  0  0  0  0  0
    2.2648    1.2596    0.0000 C   0  0  0  0  0  0  0  0  0  0  0  0
    3.0080    0.5904    0.0000 C   0  0  0  0  0  0  0  0  0  0  0  0
    3.9608    0.8940    0.0000 C   0  0  0  0  0  0  0  0  0  0  0  0
    4.1727    1.8766    0.0000 C   0  0  0  0  0  0  0  0  0  0  0  0
    5.1255    2.1800    0.0000 F   0  0  0  0  0  0  0  0  0  0  0  0
    3.4316    2.5557    0.0000 C   0  0  0  0  0  0  0  0  0  0  0  0
    2.4766    2.2422    0.0000 C   0  0  0  0  0  0  0  0  0  0  0  0
   -3.6081   -2.0110    0.0000 C   0  0  0  0  0  0  0  0  0  0  0  0
   -4.6025   -1.9051    0.0000 C   0  0  0  0  0  0  0  0  0  0  0  0
   -3.5023   -1.0166    0.0000 C   0  0  0  0  0  0  0  0  0  0  0  0
   -3.7140   -3.0053    0.0000 C   0  0  0  0  0  0  0  0  0  0  0  0
  2  1  1  1
  2  3  1  0
  3  4  1  0
  4  5  2  0
  4  6  1  0
  6 11  2  0
  6  7  1  0
  7  8  1  0
  7  9  2  0
  9 10  1  0
 10 11  1  0
 11 12  1  0
 12 13  1  0
 13 14  2  0
 13 15  2  0
 13 16  1  0
 16 21  1  0
 16 17  2  0
 17 18  1  0
 18 19  2  0
 19 20  1  0
 20 21  2  0
 19 22  1  0
 22 23  3  0
 10 24  1  0
 24 30  1  0
 24 25  2  0
 25 26  1  0
 26 27  2  0
 27 28  1  0
 27 29  1  0
 29 30  2  0
  2 31  1  0
 31 32  1  0
 31 33  1  0
 31 34  1  0
M  END
>  <SMILES>  (853) 
Cc1nn(-c2ccc(F)cc2)c(NS(=O)(=O)c2ccc(C#N)cc2)c1C(=O)N[C@@H](C)C(C)(C)C

>  <CollectionName>  (853) 
chembl

>  <LOG PLASMA PROTEIN BINDING (RAT) (% unbound)>  (853) 
0.903632516084

>  <Internal ID>  (853) 


>  <Source>  (853) 
AstraZeneca

$$$$
CHEMBL1921942
     RDKit          2D

 35 39  0  0  1  0  0  0  0  0999 V2000
    3.9215   -0.9696    0.0000 C   0  0  0  0  0  0  0  0  0  0  0  0
    3.0562   -0.4684    0.0000 C   0  0  0  0  0  0  0  0  0  0  0  0
    3.9334    1.0459    0.0000 N   0  0  0  0  0  0  0  0  0  0  0  0
    4.9386    1.0504    0.0000 C   0  0  0  0  0  0  0  0  0  0  0  0
    5.4424    1.9202    0.0000 C   0  0  0  0  0  0  0  0  0  0  0  0
    4.9412    2.7855    0.0000 C   0  0  0  0  0  0  0  0  0  0  0  0
    3.9411    2.7899    0.0000 C   0  0  0  0  0  0  0  0  0  0  0  0
    3.4373    1.9201    0.0000 C   0  0  0  0  0  0  0  0  0  0  0  0
    2.1909    0.0329    0.0000 C   0  0  0  0  0  0  0  0  0  0  0  0
    2.1924    1.0329    0.0000 O   0  0  0  0  0  0  0  0  0  0  0  0
    1.3242   -0.4659    0.0000 O   0  0  0  0  0  0  0  0  0  0  0  0
    0.4589    0.0354    0.0000 C   0  0  0  0  0  0  0  0  0  0  0  0
    0.4589    1.4385    0.0000 C   0  0  0  0  0  0  0  0  0  0  0  0
   -0.7521    2.1473    0.0000 N   0  0  0  0  0  0  0  0  0  0  0  0
   -0.7521    3.1473    0.0000 C   0  0  0  0  0  0  0  0  0  0  0  0
    0.1139    3.6473    0.0000 C   0  0  0  0  0  0  0  0  0  0  0  0
    0.9800    3.1473    0.0000 O   0  0  0  0  0  0  0  0  0  0  0  0
    0.1139    4.6473    0.0000 N   0  0  0  0  0  0  0  0  0  0  0  0
    0.9800    5.1473    0.0000 C   0  0  0  0  0  0  0  0  0  0  0  0
    0.9770    6.1525    0.0000 C   0  0  0  0  0  0  0  0  0  0  0  0
    1.8430    6.6526    0.0000 C   0  0  0  0  0  0  0  0  0  0  0  0
    2.7120    6.1576    0.0000 C   0  0  0  0  0  0  0  0  0  0  0  0
    2.7149    5.1524    0.0000 C   0  0  0  0  0  0  0  0  0  0  0  0
    1.8489    4.6422    0.0000 C   0  0  0  0  0  0  0  0  0  0  0  0
    0.0282    1.4032    0.0000 C   0  0  0  0  0  0  0  0  0  0  0  0
    0.0000    0.0000    0.0000 C   0  0  0  0  0  0  0  0  0  0  0  0
   -0.7521   -0.6591    0.0000 C   0  0  0  0  0  0  0  0  0  0  0  0
   -1.9631    0.0354    0.0000 C   0  0  0  0  0  0  0  0  0  0  0  0
   -1.9631    1.4385    0.0000 C   0  0  0  0  0  0  0  0  0  0  0  0
    2.1791   -1.9826    0.0000 C   0  0  0  0  0  0  0  0  0  0  0  0
    2.6830   -2.8524    0.0000 C   0  0  0  0  0  0  0  0  0  0  0  0
    2.1817   -3.7178    0.0000 C   0  0  0  0  0  0  0  0  0  0  0  0
    1.1817   -3.7222    0.0000 C   0  0  0  0  0  0  0  0  0  0  0  0
    0.6778   -2.8524    0.0000 C   0  0  0  0  0  0  0  0  0  0  0  0
    1.1739   -1.9782    0.0000 C   0  0  0  0  0  0  0  0  0  0  0  0
  2  1  1  6
  2  3  1  0
  3  8  1  0
  3  4  1  0
  4  5  1  0
  5  6  1  0
  6  7  1  0
  7  8  1  0
  2  9  1  0
  9 10  2  0
  9 11  1  0
 12 11  1  6
 12 27  1  0
 12 13  1  0
 13 14  1  0
 14 29  1  0
 14 15  1  0
 15 16  1  0
 16 17  2  0
 16 18  1  0
 18 19  1  0
 19 24  1  0
 19 20  2  0
 20 21  1  0
 21 22  2  0
 22 23  1  0
 23 24  2  0
 14 25  1  0
 25 26  1  0
 26 27  1  0
 27 28  1  0
 28 29  1  0
  2 30  1  0
 30 35  1  0
 30 31  2  0
 31 32  1  0
 32 33  2  0
 33 34  1  0
 34 35  2  0
M  CHG  1  14   1
M  END
>  <SMILES>  (854) 
C[C@@](C(=O)O[C@H]1C[N+]2(CC(=O)Nc3ccccc3)CCC1CC2)(c1ccccc1)N1CCCCC1

>  <CollectionName>  (854) 
chembl

>  <LOG PLASMA PROTEIN BINDING (RAT) (% unbound)>  (854) 
0.143014800254

>  <Internal ID>  (854) 


>  <Source>  (854) 
AstraZeneca

$$$$
CHEMBL1934271
     RDKit          2D

 31 32  0  0  1  0  0  0  0  0999 V2000
    3.4256    2.5451    0.0000 C   0  0  0  0  0  0  0  0  0  0  0  0
    2.4741    2.2374    0.0000 C   0  0  0  0  0  0  0  0  0  0  0  0
    2.2648    1.2596    0.0000 C   0  0  0  0  0  0  0  0  0  0  0  0
    3.0070    0.5894    0.0000 C   0  0  0  0  0  0  0  0  0  0  0  0
    3.9585    0.8970    0.0000 C   0  0  0  0  0  0  0  0  0  0  0  0
    1.3133    0.9519    0.0000 N   0  0  0  0  0  0  0  0  0  0  0  0
    0.5008    1.5428    0.0000 N   0  0  0  0  0  0  0  0  0  0  0  0
   -0.3065    0.9519    0.0000 C   0  0  0  0  0  0  0  0  0  0  0  0
   -1.2577    1.2605    0.0000 C   0  0  0  0  0  0  0  0  0  0  0  0
    0.0000    0.0000    0.0000 C   0  0  0  0  0  0  0  0  0  0  0  0
   -1.0305   -1.4144    0.0000 C   0  0  0  0  0  0  0  0  0  0  0  0
   -0.6250   -2.3285    0.0000 O   0  0  0  0  0  0  0  0  0  0  0  0
   -2.0249   -1.3086    0.0000 N   0  0  0  0  0  0  0  0  0  0  0  0
   -2.6137   -2.1168    0.0000 C   0  0  0  0  0  0  0  0  0  0  0  0
   -2.2082   -3.0309    0.0000 C   0  0  0  0  0  0  0  0  0  0  0  0
   -3.6081   -2.0110    0.0000 C   0  0  0  0  0  0  0  0  0  0  0  0
   -4.6025   -1.9051    0.0000 C   0  0  0  0  0  0  0  0  0  0  0  0
   -3.5023   -1.0166    0.0000 C   0  0  0  0  0  0  0  0  0  0  0  0
   -3.7140   -3.0053    0.0000 C   0  0  0  0  0  0  0  0  0  0  0  0
    1.0015   -0.0000    0.0000 C   0  0  0  0  0  0  0  0  0  0  0  0
    2.0284   -1.4170    0.0000 N   0  0  0  0  0  0  0  0  0  0  0  0
    1.6206   -2.3301    0.0000 S   0  0  0  0  0  0  0  0  0  0  0  0
    2.5337   -2.7379    0.0000 O   0  0  0  0  0  0  0  0  0  0  0  0
    0.7076   -1.9222    0.0000 O   0  0  0  0  0  0  0  0  0  0  0  0
    1.2128   -3.2431    0.0000 C   0  0  0  0  0  0  0  0  0  0  0  0
    0.2127   -3.3441    0.0000 C   0  0  0  0  0  0  0  0  0  0  0  0
   -0.1952   -4.2571    0.0000 C   0  0  0  0  0  0  0  0  0  0  0  0
    0.3869   -5.0703    0.0000 C   0  0  0  0  0  0  0  0  0  0  0  0
   -0.0250   -5.9815    0.0000 C   0  0  0  0  0  0  0  0  0  0  0  0
    1.3870   -4.9694    0.0000 C   0  0  0  0  0  0  0  0  0  0  0  0
    1.8050   -4.0553    0.0000 C   0  0  0  0  0  0  0  0  0  0  0  0
  1  2  1  0
  2  3  1  0
  3  4  1  0
  4  5  1  0
  3  6  1  0
  6 20  1  0
  6  7  1  0
  7  8  2  0
  8  9  1  0
  8 10  1  0
 10 11  1  0
 11 12  2  0
 11 13  1  0
 13 14  1  0
 14 15  1  1
 14 16  1  0
 16 17  1  0
 16 18  1  0
 16 19  1  0
 10 20  2  0
 20 21  1  0
 21 22  1  0
 22 23  2  0
 22 24  2  0
 22 25  1  0
 25 31  1  0
 25 26  2  0
 26 27  1  0
 27 28  2  0
 28 29  1  0
 28 30  1  0
 30 31  2  0
M  END
>  <SMILES>  (855) 
CCC(CC)n1nc(C)c(C(=O)N[C@@H](C)C(C)(C)C)c1NS(=O)(=O)c1ccc(C)cc1

>  <CollectionName>  (855) 
chembl

>  <LOG PLASMA PROTEIN BINDING (RAT) (% unbound)>  (855) 
0.912753303671

>  <Internal ID>  (855) 


>  <Source>  (855) 
AstraZeneca

$$$$
CHEMBL1934414
     RDKit          2D

 31 33  0  0  1  0  0  0  0  0999 V2000
   -1.7666   -2.4247    0.0000 C   0  0  0  0  0  0  0  0  0  0  0  0
   -2.1721   -1.5106    0.0000 C   0  0  0  0  0  0  0  0  0  0  0  0
   -1.5832   -0.7024    0.0000 N   0  0  0  0  0  0  0  0  0  0  0  0
   -0.5889   -0.8082    0.0000 C   0  0  0  0  0  0  0  0  0  0  0  0
   -0.1833   -1.7223    0.0000 O   0  0  0  0  0  0  0  0  0  0  0  0
    0.0000    0.0000    0.0000 C   0  0  0  0  0  0  0  0  0  0  0  0
   -0.3065    0.9519    0.0000 C   0  0  0  0  0  0  0  0  0  0  0  0
   -1.2577    1.2605    0.0000 C   0  0  0  0  0  0  0  0  0  0  0  0
    0.5008    1.5428    0.0000 N   0  0  0  0  0  0  0  0  0  0  0  0
    1.3133    0.9519    0.0000 N   0  0  0  0  0  0  0  0  0  0  0  0
    2.2648    1.2596    0.0000 C   0  0  0  0  0  0  0  0  0  0  0  0
    2.5766    2.2114    0.0000 C   0  0  0  0  0  0  0  0  0  0  0  0
    3.5780    2.2113    0.0000 C   0  0  0  0  0  0  0  0  0  0  0  0
    3.8844    1.2594    0.0000 C   0  0  0  0  0  0  0  0  0  0  0  0
    3.0771    0.6688    0.0000 C   0  0  0  0  0  0  0  0  0  0  0  0
    1.0015   -0.0000    0.0000 C   0  0  0  0  0  0  0  0  0  0  0  0
    2.0284   -1.4170    0.0000 N   0  0  0  0  0  0  0  0  0  0  0  0
    3.0231   -1.3137    0.0000 S   0  0  0  0  0  0  0  0  0  0  0  0
    2.9197   -0.3190    0.0000 O   0  0  0  0  0  0  0  0  0  0  0  0
    4.0177   -1.2103    0.0000 O   0  0  0  0  0  0  0  0  0  0  0  0
    3.1264   -2.3083    0.0000 C   0  0  0  0  0  0  0  0  0  0  0  0
    4.0454   -2.7155    0.0000 C   0  0  0  0  0  0  0  0  0  0  0  0
    4.1488   -3.7102    0.0000 C   0  0  0  0  0  0  0  0  0  0  0  0
    3.3425   -4.3018    0.0000 C   0  0  0  0  0  0  0  0  0  0  0  0
    3.4503   -5.2960    0.0000 C   0  0  0  0  0  0  0  0  0  0  0  0
    2.4235   -3.8945    0.0000 C   0  0  0  0  0  0  0  0  0  0  0  0
    2.3108   -2.8957    0.0000 C   0  0  0  0  0  0  0  0  0  0  0  0
   -3.1665   -1.4048    0.0000 C   0  0  0  0  0  0  0  0  0  0  0  0
   -4.1609   -1.2989    0.0000 C   0  0  0  0  0  0  0  0  0  0  0  0
   -3.0606   -0.4104    0.0000 C   0  0  0  0  0  0  0  0  0  0  0  0
   -3.2723   -2.3992    0.0000 C   0  0  0  0  0  0  0  0  0  0  0  0
  2  1  1  1
  2  3  1  0
  3  4  1  0
  4  5  2  0
  4  6  1  0
  6 16  2  0
  6  7  1  0
  7  8  1  0
  7  9  2  0
  9 10  1  0
 10 11  1  0
 11 15  1  0
 11 12  1  0
 12 13  1  0
 13 14  1  0
 14 15  1  0
 10 16  1  0
 16 17  1  0
 17 18  1  0
 18 19  2  0
 18 20  2  0
 18 21  1  0
 21 27  1  0
 21 22  2  0
 22 23  1  0
 23 24  2  0
 24 25  1  0
 24 26  1  0
 26 27  2  0
  2 28  1  0
 28 29  1  0
 28 30  1  0
 28 31  1  0
M  END
>  <SMILES>  (856) 
Cc1ccc(S(=O)(=O)Nc2c(C(=O)N[C@@H](C)C(C)(C)C)c(C)nn2C2CCCC2)cc1

>  <CollectionName>  (856) 
chembl

>  <LOG PLASMA PROTEIN BINDING (RAT) (% unbound)>  (856) 
0.428134794029

>  <Internal ID>  (856) 


>  <Source>  (856) 
AstraZeneca

$$$$
CHEMBL1539841
     RDKit          2D

 24 27  0  0  0  0  0  0  0  0999 V2000
    4.2858    0.5024    0.0000 C   0  0  0  0  0  0  0  0  0  0  0  0
    3.2858    0.5023    0.0000 C   0  0  0  0  0  0  0  0  0  0  0  0
    2.6938   -0.3125    0.0000 N   0  0  0  0  0  0  0  0  0  0  0  0
    1.7360   -0.0012    0.0000 C   0  0  0  0  0  0  0  0  0  0  0  0
    0.8680   -0.4978    0.0000 C   0  0  0  0  0  0  0  0  0  0  0  0
    0.0000    0.0000    0.0000 C   0  0  0  0  0  0  0  0  0  0  0  0
   -0.0000    1.0058    0.0000 C   0  0  0  0  0  0  0  0  0  0  0  0
   -0.8675    1.5032    0.0000 N   0  0  0  0  0  0  0  0  0  0  0  0
   -1.7320    1.0007    0.0000 S   0  0  0  0  0  0  0  0  0  0  0  0
   -2.2346    1.8652    0.0000 O   0  0  0  0  0  0  0  0  0  0  0  0
   -1.2295    0.1361    0.0000 O   0  0  0  0  0  0  0  0  0  0  0  0
   -2.5966    0.4981    0.0000 C   0  0  0  0  0  0  0  0  0  0  0  0
   -3.4676    1.0009    0.0000 C   0  0  0  0  0  0  0  0  0  0  0  0
   -4.3326    0.4981    0.0000 C   0  0  0  0  0  0  0  0  0  0  0  0
   -4.3360   -0.5035    0.0000 C   0  0  0  0  0  0  0  0  0  0  0  0
   -5.2014   -1.0047    0.0000 O   0  0  0  0  0  0  0  0  0  0  0  0
   -5.2029   -2.0095    0.0000 C   0  0  0  0  0  0  0  0  0  0  0  0
   -4.3312   -2.5112    0.0000 C   0  0  0  0  0  0  0  0  0  0  0  0
   -3.4582   -2.0080    0.0000 O   0  0  0  0  0  0  0  0  0  0  0  0
   -3.4644   -1.0052    0.0000 C   0  0  0  0  0  0  0  0  0  0  0  0
   -2.5907   -0.5074    0.0000 C   0  0  0  0  0  0  0  0  0  0  0  0
    0.8680    1.5138    0.0000 C   0  0  0  0  0  0  0  0  0  0  0  0
    1.7360    1.0058    0.0000 C   0  0  0  0  0  0  0  0  0  0  0  0
    2.6938    1.3169    0.0000 S   0  0  0  0  0  0  0  0  0  0  0  0
  1  2  1  0
  2 24  1  0
  2  3  2  0
  3  4  1  0
  4 23  2  0
  4  5  1  0
  5  6  2  0
  6  7  1  0
  7  8  1  0
  8  9  1  0
  9 10  2  0
  9 11  2  0
  9 12  1  0
 12 21  1  0
 12 13  2  0
 13 14  1  0
 14 15  2  0
 15 20  1  0
 15 16  1  0
 16 17  1  0
 17 18  1  0
 18 19  1  0
 19 20  1  0
 20 21  2  0
  7 22  2  0
 22 23  1  0
 23 24  1  0
M  END
>  <SMILES>  (857) 
Cc1nc2ccc(NS(=O)(=O)c3ccc4c(c3)OCCO4)cc2s1

>  <CollectionName>  (857) 
chembl

>  <LOG PLASMA PROTEIN BINDING (RAT) (% unbound)>  (857) 
-0.173925197299

>  <Internal ID>  (857) 


>  <Source>  (857) 
AstraZeneca

$$$$
CHEMBL642
     RDKit          2D

 24 24  0  0  1  0  0  0  0  0999 V2000
   -4.3316    1.4924    0.0000 C   0  0  0  0  0  0  0  0  0  0  0  0
   -3.4641    0.9950    0.0000 C   0  0  0  0  0  0  0  0  0  0  0  0
   -2.5995    1.4975    0.0000 C   0  0  0  0  0  0  0  0  0  0  0  0
   -1.7320    1.0001    0.0000 C   0  0  0  0  0  0  0  0  0  0  0  0
   -1.7291    0.0001    0.0000 O   0  0  0  0  0  0  0  0  0  0  0  0
   -0.8675    1.5026    0.0000 N   0  0  0  0  0  0  0  0  0  0  0  0
    0.0000    1.0052    0.0000 C   0  0  0  0  0  0  0  0  0  0  0  0
    0.0000    0.0000    0.0000 C   0  0  0  0  0  0  0  0  0  0  0  0
    0.8675   -0.4975    0.0000 C   0  0  0  0  0  0  0  0  0  0  0  0
    1.7350   -0.0000    0.0000 C   0  0  0  0  0  0  0  0  0  0  0  0
    2.6003   -0.5013    0.0000 O   0  0  0  0  0  0  0  0  0  0  0  0
    2.5988   -1.5013    0.0000 C   0  0  0  0  0  0  0  0  0  0  0  0
    3.4641   -2.0025    0.0000 C   0  0  0  0  0  0  0  0  0  0  0  0
    4.3309   -1.5038    0.0000 O   0  0  0  0  0  0  0  0  0  0  0  0
    3.4627   -3.0025    0.0000 C   0  0  0  0  0  0  0  0  0  0  0  0
    4.3280   -3.5038    0.0000 N   0  0  0  0  0  0  0  0  0  0  0  0
    4.3265   -4.5038    0.0000 C   0  0  0  0  0  0  0  0  0  0  0  0
    5.1918   -5.0050    0.0000 C   0  0  0  0  0  0  0  0  0  0  0  0
    3.4598   -5.0025    0.0000 C   0  0  0  0  0  0  0  0  0  0  0  0
    1.7350    1.0052    0.0000 C   0  0  0  0  0  0  0  0  0  0  0  0
    0.8675    1.5129    0.0000 C   0  0  0  0  0  0  0  0  0  0  0  0
    2.6025    1.5026    0.0000 C   0  0  0  0  0  0  0  0  0  0  0  0
    2.6054    2.5026    0.0000 O   0  0  0  0  0  0  0  0  0  0  0  0
    3.4670    1.0001    0.0000 C   0  0  0  0  0  0  0  0  0  0  0  0
  1  2  1  0
  2  3  1  0
  3  4  1  0
  4  5  2  0
  4  6  1  0
  6  7  1  0
  7 21  2  0
  7  8  1  0
  8  9  2  0
  9 10  1  0
 10 11  1  0
 11 12  1  0
 12 13  1  0
 13 14  1  0
 13 15  1  0
 15 16  1  0
 16 17  1  0
 17 18  1  0
 17 19  1  0
 10 20  2  0
 20 21  1  0
 20 22  1  0
 22 23  2  0
 22 24  1  0
M  END
>  <SMILES>  (858) 
CCCC(=O)Nc1ccc(OCC(O)CNC(C)C)c(C(C)=O)c1

>  <CollectionName>  (858) 
chembl

>  <LOG PLASMA PROTEIN BINDING (RAT) (% unbound)>  (858) 
1.85156408226

>  <Internal ID>  (858) 


>  <Source>  (858) 
AstraZeneca

$$$$
CHEMBL513389
     RDKit          2D

 20 21  0  0  1  0  0  0  0  0999 V2000
    4.3298   -5.5057    0.0000 C   0  0  0  0  0  0  0  0  0  0  0  0
    3.4635   -6.0052    0.0000 C   0  0  0  0  0  0  0  0  0  0  0  0
    3.4630   -7.0052    0.0000 C   0  0  0  0  0  0  0  0  0  0  0  0
    2.5978   -5.5047    0.0000 N   0  0  0  0  0  0  0  0  0  0  0  0
    2.5984   -4.5047    0.0000 C   0  0  0  0  0  0  0  0  0  0  0  0
    3.4647   -4.0052    0.0000 C   0  0  0  0  0  0  0  0  0  0  0  0
    1.7326   -4.0042    0.0000 C   0  0  0  0  0  0  0  0  0  0  0  0
    0.8663   -4.5037    0.0000 O   0  0  0  0  0  0  0  0  0  0  0  0
    1.7332   -3.0042    0.0000 C   0  0  0  0  0  0  0  0  0  0  0  0
    0.8674   -2.5037    0.0000 O   0  0  0  0  0  0  0  0  0  0  0  0
    0.8680   -1.5037    0.0000 C   0  0  0  0  0  0  0  0  0  0  0  0
    0.0000   -1.0058    0.0000 C   0  0  0  0  0  0  0  0  0  0  0  0
    0.0000    0.0000    0.0000 C   0  0  0  0  0  0  0  0  0  0  0  0
    0.8680    0.5079    0.0000 C   0  0  0  0  0  0  0  0  0  0  0  0
    0.8680    1.5079    0.0000 C   0  0  0  0  0  0  0  0  0  0  0  0
    1.7360    0.0000    0.0000 C   0  0  0  0  0  0  0  0  0  0  0  0
    2.6938    0.3110    0.0000 C   0  0  0  0  0  0  0  0  0  0  0  0
    3.2858   -0.5036    0.0000 C   0  0  0  0  0  0  0  0  0  0  0  0
    2.6938   -1.3184    0.0000 C   0  0  0  0  0  0  0  0  0  0  0  0
    1.7360   -1.0071    0.0000 C   0  0  0  0  0  0  0  0  0  0  0  0
  1  2  1  0
  2  3  1  0
  2  4  1  0
  4  5  1  0
  5  6  1  0
  5  7  1  0
  7  8  1  0
  7  9  1  0
  9 10  1  0
 10 11  1  0
 11 20  2  0
 11 12  1  0
 12 13  2  0
 13 14  1  0
 14 15  1  0
 14 16  2  0
 16 20  1  0
 16 17  1  0
 17 18  1  0
 18 19  1  0
 19 20  1  0
M  END
>  <SMILES>  (859) 
Cc1ccc(OCC(O)C(C)NC(C)C)c2c1CCC2

>  <CollectionName>  (859) 
chembl

>  <LOG PLASMA PROTEIN BINDING (RAT) (% unbound)>  (859) 
1.33425264233

>  <Internal ID>  (859) 


>  <Source>  (859) 
AstraZeneca

$$$$
CHEMBL520278
     RDKit          2D

 32 35  0  0  0  0  0  0  0  0999 V2000
   -2.5995    1.5012    0.0000 C   0  0  0  0  0  0  0  0  0  0  0  0
   -1.7320    1.0038    0.0000 C   0  0  0  0  0  0  0  0  0  0  0  0
   -0.8675    1.5063    0.0000 O   0  0  0  0  0  0  0  0  0  0  0  0
    0.0000    1.0089    0.0000 C   0  0  0  0  0  0  0  0  0  0  0  0
    0.8707    1.5185    0.0000 C   0  0  0  0  0  0  0  0  0  0  0  0
    1.7414    1.0089    0.0000 C   0  0  0  0  0  0  0  0  0  0  0  0
    2.6125    1.5125    0.0000 N   0  0  0  0  0  0  0  0  0  0  0  0
    3.4848    1.0014    0.0000 C   0  0  0  0  0  0  0  0  0  0  0  0
    3.4805   -0.0073    0.0000 C   0  0  0  0  0  0  0  0  0  0  0  0
    4.3437   -0.5122    0.0000 C   0  0  0  0  0  0  0  0  0  0  0  0
    4.3381   -1.5121    0.0000 O   0  0  0  0  0  0  0  0  0  0  0  0
    5.2125   -0.0170    0.0000 N   0  0  0  0  0  0  0  0  0  0  0  0
    2.6039   -0.5053    0.0000 C   0  0  0  0  0  0  0  0  0  0  0  0
    2.5983   -1.5053    0.0000 N   0  0  0  0  0  0  0  0  0  0  0  0
    1.7295   -2.0004    0.0000 C   0  0  0  0  0  0  0  0  0  0  0  0
    0.8633   -1.4904    0.0000 C   0  0  0  0  0  0  0  0  0  0  0  0
   -0.0055   -1.9856    0.0000 C   0  0  0  0  0  0  0  0  0  0  0  0
   -0.0170   -2.9855    0.0000 C   0  0  0  0  0  0  0  0  0  0  0  0
    0.8492   -3.4956    0.0000 C   0  0  0  0  0  0  0  0  0  0  0  0
    0.8378   -4.4955    0.0000 Cl  0  0  0  0  0  0  0  0  0  0  0  0
    1.7269   -3.0056    0.0000 C   0  0  0  0  0  0  0  0  0  0  0  0
    2.5886   -3.5130    0.0000 F   0  0  0  0  0  0  0  0  0  0  0  0
    1.7371   -0.0000    0.0000 C   0  0  0  0  0  0  0  0  0  0  0  0
    0.8707   -0.4993    0.0000 C   0  0  0  0  0  0  0  0  0  0  0  0
    0.0000    0.0000    0.0000 C   0  0  0  0  0  0  0  0  0  0  0  0
   -1.5143   -0.8772    0.0000 N   0  0  0  0  0  0  0  0  0  0  0  0
   -2.3884   -0.3811    0.0000 C   0  0  0  0  0  0  0  0  0  0  0  0
   -3.2582   -0.8850    0.0000 C   0  0  0  0  0  0  0  0  0  0  0  0
   -3.2538   -1.8850    0.0000 N   0  0  0  0  0  0  0  0  0  0  0  0
   -4.1191   -2.3862    0.0000 C   0  0  0  0  0  0  0  0  0  0  0  0
   -2.3885   -2.3862    0.0000 C   0  0  0  0  0  0  0  0  0  0  0  0
   -1.5187   -1.8824    0.0000 C   0  0  0  0  0  0  0  0  0  0  0  0
  1  2  1  0
  2  3  1  0
  3  4  1  0
  4 25  2  0
  4  5  1  0
  5  6  2  0
  6 23  1  0
  6  7  1  0
  7  8  2  0
  8  9  1  0
  9 10  1  0
 10 11  2  0
 10 12  1  0
  9 13  2  0
 13 14  1  0
 14 15  1  0
 15 21  1  0
 15 16  2  0
 16 17  1  0
 17 18  2  0
 18 19  1  0
 19 20  1  0
 19 21  2  0
 21 22  1  0
 13 23  1  0
 23 24  2  0
 24 25  1  0
 25 26  1  0
 26 32  1  0
 26 27  1  0
 27 28  1  0
 28 29  1  0
 29 30  1  0
 29 31  1  0
 31 32  1  0
M  END
>  <SMILES>  (860) 
CCOc1cc2ncc(C(N)=O)c(Nc3cccc(Cl)c3F)c2cc1N1CCN(C)CC1

>  <CollectionName>  (860) 
chembl

>  <LOG PLASMA PROTEIN BINDING (RAT) (% unbound)>  (860) 
1.12742877785

>  <Internal ID>  (860) 


>  <Source>  (860) 
AstraZeneca

$$$$
CHEMBL520714
     RDKit          2D

 32 35  0  0  0  0  0  0  0  0999 V2000
   -0.5187    5.5420    0.0000 F   0  0  0  0  0  0  0  0  0  0  0  0
    0.4813    5.5479    0.0000 C   0  0  0  0  0  0  0  0  0  0  0  0
    1.4813    5.5538    0.0000 F   0  0  0  0  0  0  0  0  0  0  0  0
    0.4754    6.5479    0.0000 F   0  0  0  0  0  0  0  0  0  0  0  0
    0.4873    4.5479    0.0000 C   0  0  0  0  0  0  0  0  0  0  0  0
   -0.3751    4.0415    0.0000 C   0  0  0  0  0  0  0  0  0  0  0  0
   -0.3735    3.0415    0.0000 C   0  0  0  0  0  0  0  0  0  0  0  0
    0.4993    2.5428    0.0000 C   0  0  0  0  0  0  0  0  0  0  0  0
    1.3705    3.0441    0.0000 C   0  0  0  0  0  0  0  0  0  0  0  0
    1.3600    4.0492    0.0000 C   0  0  0  0  0  0  0  0  0  0  0  0
    0.5008    1.5428    0.0000 N   0  0  0  0  0  0  0  0  0  0  0  0
   -0.3065    0.9519    0.0000 C   0  0  0  0  0  0  0  0  0  0  0  0
    0.0000    0.0000    0.0000 C   0  0  0  0  0  0  0  0  0  0  0  0
    1.0015   -0.0000    0.0000 C   0  0  0  0  0  0  0  0  0  0  0  0
    1.5883   -0.8097    0.0000 C   0  0  0  0  0  0  0  0  0  0  0  0
    2.5830   -0.7064    0.0000 N   0  0  0  0  0  0  0  0  0  0  0  0
    3.3593   -1.3366    0.0000 C   0  0  0  0  0  0  0  0  0  0  0  0
    3.9895   -0.5602    0.0000 C   0  0  0  0  0  0  0  0  0  0  0  0
    3.2132    0.0700    0.0000 C   0  0  0  0  0  0  0  0  0  0  0  0
    4.9841   -0.4569    0.0000 N   0  0  0  0  0  0  0  0  0  0  0  0
    5.3920    0.4562    0.0000 C   0  0  0  0  0  0  0  0  0  0  0  0
    4.8051    1.2659    0.0000 O   0  0  0  0  0  0  0  0  0  0  0  0
    6.3866    0.5595    0.0000 C   0  0  0  0  0  0  0  0  0  0  0  0
    6.7944    1.4726    0.0000 O   0  0  0  0  0  0  0  0  0  0  0  0
    7.7891    1.5759    0.0000 C   0  0  0  0  0  0  0  0  0  0  0  0
    8.3765    0.7603    0.0000 C   0  0  0  0  0  0  0  0  0  0  0  0
    9.3712    0.8636    0.0000 C   0  0  0  0  0  0  0  0  0  0  0  0
    9.7844    1.7742    0.0000 C   0  0  0  0  0  0  0  0  0  0  0  0
    9.1969    2.5899    0.0000 C   0  0  0  0  0  0  0  0  0  0  0  0
    9.6101    3.5005    0.0000 Cl  0  0  0  0  0  0  0  0  0  0  0  0
    8.1963    2.4949    0.0000 C   0  0  0  0  0  0  0  0  0  0  0  0
    1.3133    0.9519    0.0000 C   0  0  0  0  0  0  0  0  0  0  0  0
  1  2  1  0
  2  3  1  0
  2  4  1  0
  2  5  1  0
  5 10  2  0
  5  6  1  0
  6  7  2  0
  7  8  1  0
  8  9  2  0
  9 10  1  0
  8 11  1  0
 11 32  1  0
 11 12  1  0
 12 13  2  0
 13 14  1  0
 14 15  1  0
 15 16  1  0
 16 19  1  0
 16 17  1  0
 17 18  1  0
 18 19  1  0
 18 20  1  0
 20 21  1  0
 21 22  2  0
 21 23  1  0
 23 24  1  0
 24 25  1  0
 25 31  1  0
 25 26  2  0
 26 27  1  0
 27 28  2  0
 28 29  1  0
 29 30  1  0
 29 31  2  0
 14 32  2  0
M  END
>  <SMILES>  (861) 
O=C(COc1cccc(Cl)c1)NC1CN(Cc2ccn(-c3ccc(C(F)(F)F)cc3)c2)C1

>  <CollectionName>  (861) 
chembl

>  <LOG PLASMA PROTEIN BINDING (RAT) (% unbound)>  (861) 
-0.36653154442

>  <Internal ID>  (861) 


>  <Source>  (861) 
AstraZeneca

$$$$
CHEMBL1423
     RDKit          2D

 34 38  0  0  0  0  0  0  0  0999 V2000
   -1.0145    6.7399    0.0000 F   0  0  0  0  0  0  0  0  0  0  0  0
   -0.0354    6.9434    0.0000 C   0  0  0  0  0  0  0  0  0  0  0  0
    0.2766    7.8990    0.0000 C   0  0  0  0  0  0  0  0  0  0  0  0
    1.2557    8.1026    0.0000 C   0  0  0  0  0  0  0  0  0  0  0  0
    1.9259    7.3604    0.0000 C   0  0  0  0  0  0  0  0  0  0  0  0
    1.6139    6.4048    0.0000 C   0  0  0  0  0  0  0  0  0  0  0  0
    0.6316    6.1915    0.0000 C   0  0  0  0  0  0  0  0  0  0  0  0
    2.9041    7.5683    0.0000 C   0  0  0  0  0  0  0  0  0  0  0  0
    3.5732    6.8251    0.0000 C   0  0  0  0  0  0  0  0  0  0  0  0
    3.2641    5.8740    0.0000 C   0  0  0  0  0  0  0  0  0  0  0  0
    3.9332    5.1309    0.0000 C   0  0  0  0  0  0  0  0  0  0  0  0
    3.6242    4.1798    0.0000 N   0  0  0  0  0  0  0  0  0  0  0  0
    2.6422    3.9651    0.0000 C   0  0  0  0  0  0  0  0  0  0  0  0
    2.3316    3.0091    0.0000 C   0  0  0  0  0  0  0  0  0  0  0  0
    3.0029    2.2678    0.0000 C   0  0  0  0  0  0  0  0  0  0  0  0
    3.9816    2.4729    0.0000 C   0  0  0  0  0  0  0  0  0  0  0  0
    4.2923    3.4289    0.0000 C   0  0  0  0  0  0  0  0  0  0  0  0
    2.6938    1.3168    0.0000 N   0  0  0  0  0  0  0  0  0  0  0  0
    3.2858    0.5022    0.0000 C   0  0  0  0  0  0  0  0  0  0  0  0
    4.2858    0.5023    0.0000 O   0  0  0  0  0  0  0  0  0  0  0  0
    2.6938   -0.3126    0.0000 N   0  0  0  0  0  0  0  0  0  0  0  0
    1.7360   -0.0013    0.0000 C   0  0  0  0  0  0  0  0  0  0  0  0
    0.8680   -0.4979    0.0000 C   0  0  0  0  0  0  0  0  0  0  0  0
    0.0000    0.0000    0.0000 C   0  0  0  0  0  0  0  0  0  0  0  0
    0.0000    1.0058    0.0000 C   0  0  0  0  0  0  0  0  0  0  0  0
    0.8680    1.5137    0.0000 C   0  0  0  0  0  0  0  0  0  0  0  0
    1.7360    1.0058    0.0000 C   0  0  0  0  0  0  0  0  0  0  0  0
    3.2131    8.5193    0.0000 C   0  0  0  0  0  0  0  0  0  0  0  0
    4.1910    8.7286    0.0000 C   0  0  0  0  0  0  0  0  0  0  0  0
    4.5042    9.6783    0.0000 C   0  0  0  0  0  0  0  0  0  0  0  0
    3.8327   10.4263    0.0000 C   0  0  0  0  0  0  0  0  0  0  0  0
    4.1459   11.3760    0.0000 F   0  0  0  0  0  0  0  0  0  0  0  0
    2.8480   10.2246    0.0000 C   0  0  0  0  0  0  0  0  0  0  0  0
    2.5416    9.2673    0.0000 C   0  0  0  0  0  0  0  0  0  0  0  0
  1  2  1  0
  2  7  2  0
  2  3  1  0
  3  4  2  0
  4  5  1  0
  5  6  2  0
  6  7  1  0
  5  8  1  0
  8  9  1  0
  9 10  1  0
 10 11  1  0
 11 12  1  0
 12 17  1  0
 12 13  1  0
 13 14  1  0
 14 15  1  0
 15 16  1  0
 16 17  1  0
 15 18  1  0
 18 27  1  0
 18 19  1  0
 19 20  2  0
 19 21  1  0
 21 22  1  0
 22 27  2  0
 22 23  1  0
 23 24  2  0
 24 25  1  0
 25 26  2  0
 26 27  1  0
  8 28  1  0
 28 34  1  0
 28 29  2  0
 29 30  1  0
 30 31  2  0
 31 32  1  0
 31 33  1  0
 33 34  2  0
M  END
>  <SMILES>  (862) 
O=c1[nH]c2ccccc2n1C1CCN(CCCC(c2ccc(F)cc2)c2ccc(F)cc2)CC1

>  <CollectionName>  (862) 
chembl

>  <LOG PLASMA PROTEIN BINDING (RAT) (% unbound)>  (862) 
-0.52287874528

>  <Internal ID>  (862) 


>  <Source>  (862) 
AstraZeneca

$$$$
CHEMBL1428
     RDKit          2D

 30 31  0  0  1  0  0  0  0  0999 V2000
   -6.0636    0.4900    0.0000 C   0  0  0  0  0  0  0  0  0  0  0  0
   -5.1969   -0.0088    0.0000 O   0  0  0  0  0  0  0  0  0  0  0  0
   -4.3316    0.4925    0.0000 C   0  0  0  0  0  0  0  0  0  0  0  0
   -3.4648   -0.0063    0.0000 C   0  0  0  0  0  0  0  0  0  0  0  0
   -2.5995    0.4950    0.0000 O   0  0  0  0  0  0  0  0  0  0  0  0
   -1.7328   -0.0038    0.0000 C   0  0  0  0  0  0  0  0  0  0  0  0
   -1.7313   -1.0038    0.0000 O   0  0  0  0  0  0  0  0  0  0  0  0
   -0.8675    0.4975    0.0000 C   0  0  0  0  0  0  0  0  0  0  0  0
   -0.8675    1.5027    0.0000 C   0  0  0  0  0  0  0  0  0  0  0  0
   -1.7350    2.0001    0.0000 C   0  0  0  0  0  0  0  0  0  0  0  0
   -0.0000    2.0104    0.0000 N   0  0  0  0  0  0  0  0  0  0  0  0
    0.8675    1.5027    0.0000 C   0  0  0  0  0  0  0  0  0  0  0  0
    0.8675    0.4975    0.0000 C   0  0  0  0  0  0  0  0  0  0  0  0
    0.0000    0.0000    0.0000 C   0  0  0  0  0  0  0  0  0  0  0  0
    0.0000   -1.0000    0.0000 C   0  0  0  0  0  0  0  0  0  0  0  0
   -0.8720   -1.5000    0.0000 C   0  0  0  0  0  0  0  0  0  0  0  0
   -0.8721   -2.5001    0.0000 C   0  0  0  0  0  0  0  0  0  0  0  0
   -0.0089   -3.0051    0.0000 C   0  0  0  0  0  0  0  0  0  0  0  0
    0.8631   -2.5051    0.0000 C   0  0  0  0  0  0  0  0  0  0  0  0
    0.8720   -1.5000    0.0000 C   0  0  0  0  0  0  0  0  0  0  0  0
    1.7261   -3.0102    0.0000 N   0  0  0  0  0  0  0  0  0  0  0  0
    1.7202   -4.0102    0.0000 O   0  0  0  0  0  0  0  0  0  0  0  0
    2.5951   -2.5153    0.0000 O   0  0  0  0  0  0  0  0  0  0  0  0
    1.7328   -0.0038    0.0000 C   0  0  0  0  0  0  0  0  0  0  0  0
    1.7313   -1.0038    0.0000 O   0  0  0  0  0  0  0  0  0  0  0  0
    2.5995    0.4950    0.0000 O   0  0  0  0  0  0  0  0  0  0  0  0
    3.4648   -0.0063    0.0000 C   0  0  0  0  0  0  0  0  0  0  0  0
    4.3316    0.4925    0.0000 C   0  0  0  0  0  0  0  0  0  0  0  0
    3.4634   -1.0063    0.0000 C   0  0  0  0  0  0  0  0  0  0  0  0
    1.7350    2.0001    0.0000 C   0  0  0  0  0  0  0  0  0  0  0  0
  1  2  1  0
  2  3  1  0
  3  4  1  0
  4  5  1  0
  5  6  1  0
  6  7  2  0
  6  8  1  0
  8 14  1  0
  8  9  2  0
  9 10  1  0
  9 11  1  0
 11 12  1  0
 12 13  2  0
 13 14  1  0
 14 15  1  0
 15 20  1  0
 15 16  2  0
 16 17  1  0
 17 18  2  0
 18 19  1  0
 19 20  2  0
 19 21  1  0
 21 22  2  0
 21 23  1  0
 13 24  1  0
 24 25  2  0
 24 26  1  0
 26 27  1  0
 27 28  1  0
 27 29  1  0
 12 30  1  0
M  CHG  2  21   1  23  -1
M  END
>  <SMILES>  (863) 
COCCOC(=O)C1=C(C)NC(C)=C(C(=O)OC(C)C)C1c1cccc([N+](=O)[O-])c1

>  <CollectionName>  (863) 
chembl

>  <LOG PLASMA PROTEIN BINDING (RAT) (% unbound)>  (863) 
0.243038048686

>  <Internal ID>  (863) 


>  <Source>  (863) 
AstraZeneca

$$$$
CHEMBL502347
     RDKit          2D

 22 25  0  0  1  0  0  0  0  0999 V2000
    5.8634    4.2512    0.0000 N   0  0  0  0  0  0  0  0  0  0  0  0
    5.8170    3.2523    0.0000 C   0  0  0  0  0  0  0  0  0  0  0  0
    6.5997    2.6276    0.0000 C   0  0  0  0  0  0  0  0  0  0  0  0
    6.2455    1.6924    0.0000 C   0  0  0  0  0  0  0  0  0  0  0  0
    5.2459    1.7341    0.0000 N   0  0  0  0  0  0  0  0  0  0  0  0
    4.9795    2.7028    0.0000 C   0  0  0  0  0  0  0  0  0  0  0  0
    4.6233    0.9516    0.0000 C   0  0  0  0  0  0  0  0  0  0  0  0
    4.9928    0.0036    0.0000 N   0  0  0  0  0  0  0  0  0  0  0  0
    4.3594   -0.7901    0.0000 C   0  0  0  0  0  0  0  0  0  0  0  0
    4.7231   -1.7216    0.0000 N   0  0  0  0  0  0  0  0  0  0  0  0
    3.3566   -0.6357    0.0000 N   0  0  0  0  0  0  0  0  0  0  0  0
    2.9881    0.3042    0.0000 C   0  0  0  0  0  0  0  0  0  0  0  0
    3.6213    1.0979    0.0000 C   0  0  0  0  0  0  0  0  0  0  0  0
    3.3918    2.0816    0.0000 C   0  0  0  0  0  0  0  0  0  0  0  0
    2.4789    2.5129    0.0000 C   0  0  0  0  0  0  0  0  0  0  0  0
    1.5722    2.0747    0.0000 C   0  0  0  0  0  0  0  0  0  0  0  0
    1.3564    1.0913    0.0000 C   0  0  0  0  0  0  0  0  0  0  0  0
    0.3664    0.9377    0.0000 C   0  0  0  0  0  0  0  0  0  0  0  0
    0.0000    0.0000    0.0000 C   0  0  0  0  0  0  0  0  0  0  0  0
    0.6317   -0.7851    0.0000 C   0  0  0  0  0  0  0  0  0  0  0  0
    1.6296   -0.6322    0.0000 C   0  0  0  0  0  0  0  0  0  0  0  0
    1.9881    0.3064    0.0000 C   0  0  0  0  0  0  0  0  0  0  0  0
  2  1  1  6
  2  6  1  0
  2  3  1  0
  3  4  1  0
  4  5  1  0
  5  6  1  0
  5  7  1  0
  7 13  1  0
  7  8  2  0
  8  9  1  0
  9 10  1  0
  9 11  2  0
 11 12  1  0
 12 22  1  0
 12 13  2  0
 13 14  1  0
 14 15  1  0
 15 16  1  0
 16 17  1  0
 17 22  2  0
 17 18  1  0
 18 19  2  0
 19 20  1  0
 20 21  2  0
 21 22  1  0
M  END
>  <SMILES>  (864) 
Nc1nc2c(c(N3CC[C@@H](N)C3)n1)CCCc1ccccc1-2

>  <CollectionName>  (864) 
chembl

>  <LOG PLASMA PROTEIN BINDING (RAT) (% unbound)>  (864) 
1.64048143697

>  <Internal ID>  (864) 


>  <Source>  (864) 
AstraZeneca

$$$$
CHEMBL1800807
     RDKit          2D

 44 47  0  0  1  0  0  0  0  0999 V2000
    2.9930    0.2099    0.0000 C   0  0  0  0  0  0  0  0  0  0  0  0
    2.5879   -0.7043    0.0000 O   0  0  0  0  0  0  0  0  0  0  0  0
    3.1772   -1.5123    0.0000 C   0  0  0  0  0  0  0  0  0  0  0  0
    4.1763   -1.4025    0.0000 C   0  0  0  0  0  0  0  0  0  0  0  0
    4.7614   -2.2198    0.0000 C   0  0  0  0  0  0  0  0  0  0  0  0
    5.7563   -2.1193    0.0000 F   0  0  0  0  0  0  0  0  0  0  0  0
    4.3515   -3.1376    0.0000 C   0  0  0  0  0  0  0  0  0  0  0  0
    3.3565   -3.2381    0.0000 C   0  0  0  0  0  0  0  0  0  0  0  0
    2.7673   -2.4301    0.0000 C   0  0  0  0  0  0  0  0  0  0  0  0
    1.7728   -2.5350    0.0000 C   0  0  0  0  0  0  0  0  0  0  0  0
    1.3650   -3.4481    0.0000 C   0  0  0  0  0  0  0  0  0  0  0  0
    0.3709   -3.5572    0.0000 C   0  0  0  0  0  0  0  0  0  0  0  0
   -0.2214   -2.7451    0.0000 C   0  0  0  0  0  0  0  0  0  0  0  0
    0.1804   -1.8237    0.0000 C   0  0  0  0  0  0  0  0  0  0  0  0
    1.1805   -1.7228    0.0000 C   0  0  0  0  0  0  0  0  0  0  0  0
    1.5883   -0.8097    0.0000 C   0  0  0  0  0  0  0  0  0  0  0  0
    1.0015   -0.0000    0.0000 N   0  0  0  0  0  0  0  0  0  0  0  0
    0.0000    0.0000    0.0000 C   0  0  0  0  0  0  0  0  0  0  0  0
   -0.5889   -0.8082    0.0000 C   0  0  0  0  0  0  0  0  0  0  0  0
   -0.3065    0.9519    0.0000 C   0  0  0  0  0  0  0  0  0  0  0  0
    0.5008    1.5428    0.0000 O   0  0  0  0  0  0  0  0  0  0  0  0
    1.3133    0.9519    0.0000 C   0  0  0  0  0  0  0  0  0  0  0  0
    2.2648    1.2596    0.0000 O   0  0  0  0  0  0  0  0  0  0  0  0
   -1.2577    1.2605    0.0000 C   0  0  0  0  0  0  0  0  0  0  0  0
   -1.9986    0.5889    0.0000 C   0  0  0  0  0  0  0  0  0  0  0  0
   -2.9548    0.8991    0.0000 C   0  0  0  0  0  0  0  0  0  0  0  0
   -3.1700    1.8809    0.0000 C   0  0  0  0  0  0  0  0  0  0  0  0
   -2.4193    2.5494    0.0000 C   0  0  0  0  0  0  0  0  0  0  0  0
   -1.4632    2.2392    0.0000 C   0  0  0  0  0  0  0  0  0  0  0  0
   -2.6248    3.5281    0.0000 C   0  0  0  0  0  0  0  0  0  0  0  0
   -3.6035    3.3226    0.0000 F   0  0  0  0  0  0  0  0  0  0  0  0
   -1.6461    3.7335    0.0000 F   0  0  0  0  0  0  0  0  0  0  0  0
   -2.8302    4.5067    0.0000 F   0  0  0  0  0  0  0  0  0  0  0  0
   -3.6956    0.2274    0.0000 C   0  0  0  0  0  0  0  0  0  0  0  0
   -3.0240   -0.5134    0.0000 F   0  0  0  0  0  0  0  0  0  0  0  0
   -4.3673    0.9683    0.0000 F   0  0  0  0  0  0  0  0  0  0  0  0
   -4.4365   -0.4442    0.0000 F   0  0  0  0  0  0  0  0  0  0  0  0
   -1.2154   -2.8543    0.0000 C   0  0  0  0  0  0  0  0  0  0  0  0
   -1.1062   -3.8483    0.0000 F   0  0  0  0  0  0  0  0  0  0  0  0
   -1.3246   -1.8602    0.0000 F   0  0  0  0  0  0  0  0  0  0  0  0
   -2.2094   -2.9635    0.0000 F   0  0  0  0  0  0  0  0  0  0  0  0
    4.9371   -3.9482    0.0000 C   0  0  0  0  0  0  0  0  0  0  0  0
    5.9319   -3.8462    0.0000 C   0  0  0  0  0  0  0  0  0  0  0  0
    4.5280   -4.8607    0.0000 C   0  0  0  0  0  0  0  0  0  0  0  0
  1  2  1  0
  2  3  1  0
  3  9  2  0
  3  4  1  0
  4  5  2  0
  5  6  1  0
  5  7  1  0
  7  8  2  0
  8  9  1  0
  9 10  1  0
 10 15  1  0
 10 11  2  0
 11 12  1  0
 12 13  2  0
 13 14  1  0
 14 15  2  0
 15 16  1  0
 16 17  1  0
 17 22  1  0
 17 18  1  0
 18 19  1  1
 18 20  1  0
 20 21  1  0
 21 22  1  0
 22 23  2  0
 20 24  1  1
 24 29  1  0
 24 25  2  0
 25 26  1  0
 26 27  2  0
 27 28  1  0
 28 29  2  0
 28 30  1  0
 30 31  1  0
 30 32  1  0
 30 33  1  0
 26 34  1  0
 34 35  1  0
 34 36  1  0
 34 37  1  0
 13 38  1  0
 38 39  1  0
 38 40  1  0
 38 41  1  0
  7 42  1  0
 42 43  1  0
 42 44  1  0
M  END
>  <SMILES>  (865) 
COc1cc(F)c(C(C)C)cc1-c1ccc(C(F)(F)F)cc1CN1C(=O)O[C@H](c2cc(C(F)(F)F)cc(C(F)(F)F)c2)[C@@H]1C

>  <CollectionName>  (865) 
chembl

>  <LOG PLASMA PROTEIN BINDING (RAT) (% unbound)>  (865) 
0.515873843712

>  <Internal ID>  (865) 


>  <Source>  (865) 
AstraZeneca

$$$$
CHEMBL1801504
     RDKit          2D

 27 31  0  0  0  0  0  0  0  0999 V2000
   -0.8675    1.5063    0.0000 F   0  0  0  0  0  0  0  0  0  0  0  0
    0.0000    1.0089    0.0000 C   0  0  0  0  0  0  0  0  0  0  0  0
    0.0000    0.0000    0.0000 C   0  0  0  0  0  0  0  0  0  0  0  0
    0.8707   -0.4993    0.0000 C   0  0  0  0  0  0  0  0  0  0  0  0
    1.7371   -0.0000    0.0000 C   0  0  0  0  0  0  0  0  0  0  0  0
    2.6039   -0.5053    0.0000 C   0  0  0  0  0  0  0  0  0  0  0  0
    3.4805   -0.0073    0.0000 C   0  0  0  0  0  0  0  0  0  0  0  0
    3.4848    1.0014    0.0000 C   0  0  0  0  0  0  0  0  0  0  0  0
    4.3535    1.4968    0.0000 O   0  0  0  0  0  0  0  0  0  0  0  0
    2.6125    1.5125    0.0000 N   0  0  0  0  0  0  0  0  0  0  0  0
    1.7414    1.0089    0.0000 C   0  0  0  0  0  0  0  0  0  0  0  0
    0.8707    1.5185    0.0000 C   0  0  0  0  0  0  0  0  0  0  0  0
    0.8707    2.5185    0.0000 F   0  0  0  0  0  0  0  0  0  0  0  0
    2.5983   -1.5053    0.0000 C   0  0  0  0  0  0  0  0  0  0  0  0
    3.4615   -2.0101    0.0000 N   0  0  0  0  0  0  0  0  0  0  0  0
    3.5611   -3.0122    0.0000 C   0  0  0  0  0  0  0  0  0  0  0  0
    4.5450   -3.2271    0.0000 N   0  0  0  0  0  0  0  0  0  0  0  0
    5.0534   -2.3577    0.0000 C   0  0  0  0  0  0  0  0  0  0  0  0
    6.0319   -2.1514    0.0000 N   0  0  0  0  0  0  0  0  0  0  0  0
    6.3491   -1.2024    0.0000 C   0  0  0  0  0  0  0  0  0  0  0  0
    5.6803   -0.4511    0.0000 C   0  0  0  0  0  0  0  0  0  0  0  0
    4.6943   -0.6490    0.0000 N   0  0  0  0  0  0  0  0  0  0  0  0
    4.3837   -1.6055    0.0000 C   0  0  0  0  0  0  0  0  0  0  0  0
    2.8141   -3.6771    0.0000 C   0  0  0  0  0  0  0  0  0  0  0  0
    2.7561   -4.6754    0.0000 C   0  0  0  0  0  0  0  0  0  0  0  0
    1.7578   -4.6174    0.0000 C   0  0  0  0  0  0  0  0  0  0  0  0
    1.8158   -3.6191    0.0000 C   0  0  0  0  0  0  0  0  0  0  0  0
  1  2  1  0
  2 12  2  0
  2  3  1  0
  3  4  2  0
  4  5  1  0
  5 11  2  0
  5  6  1  0
  6  7  2  0
  7  8  1  0
  8  9  2  0
  8 10  1  0
 10 11  1  0
 11 12  1  0
 12 13  1  0
  6 14  1  0
 14 15  1  0
 15 23  1  0
 15 16  1  0
 16 17  2  0
 17 18  1  0
 18 23  2  0
 18 19  1  0
 19 20  2  0
 20 21  1  0
 21 22  2  0
 22 23  1  0
 16 24  1  0
 24 27  1  0
 24 25  1  0
 25 26  1  0
 26 27  1  0
M  END
>  <SMILES>  (866) 
O=c1cc(Cn2c(C3CCC3)nc3nccnc32)c2ccc(F)c(F)c2[nH]1

>  <CollectionName>  (866) 
chembl

>  <LOG PLASMA PROTEIN BINDING (RAT) (% unbound)>  (866) 
1.20411998266

>  <Internal ID>  (866) 


>  <Source>  (866) 
AstraZeneca

$$$$
CHEMBL1818303
     RDKit          2D

 41 44  0  0  1  0  0  0  0  0999 V2000
    8.7059    3.9788    0.0000 C   0  0  0  0  0  0  0  0  0  0  0  0
    8.7006    2.9788    0.0000 N   0  0  0  0  0  0  0  0  0  0  0  0
    9.5639    2.4742    0.0000 C   0  0  0  0  0  0  0  0  0  0  0  0
    7.8319    2.4834    0.0000 C   0  0  0  0  0  0  0  0  0  0  0  0
    6.9686    2.9880    0.0000 C   0  0  0  0  0  0  0  0  0  0  0  0
    6.0999    2.4927    0.0000 C   0  0  0  0  0  0  0  0  0  0  0  0
    6.0974    1.4926    0.0000 C   0  0  0  0  0  0  0  0  0  0  0  0
    5.2242    0.9947    0.0000 C   0  0  0  0  0  0  0  0  0  0  0  0
    4.3535    1.4968    0.0000 N   0  0  0  0  0  0  0  0  0  0  0  0
    4.3648    2.5019    0.0000 C   0  0  0  0  0  0  0  0  0  0  0  0
    5.2380    2.9998    0.0000 C   0  0  0  0  0  0  0  0  0  0  0  0
    3.4848    1.0014    0.0000 C   0  0  0  0  0  0  0  0  0  0  0  0
    3.4805   -0.0073    0.0000 C   0  0  0  0  0  0  0  0  0  0  0  0
    2.6039   -0.5053    0.0000 C   0  0  0  0  0  0  0  0  0  0  0  0
    2.5983   -1.5053    0.0000 C   0  0  0  0  0  0  0  0  0  0  0  0
    3.4615   -2.0101    0.0000 O   0  0  0  0  0  0  0  0  0  0  0  0
    1.7295   -2.0004    0.0000 N   0  0  0  0  0  0  0  0  0  0  0  0
    1.7240   -3.0004    0.0000 C   0  0  0  0  0  0  0  0  0  0  0  0
    0.8552   -3.4956    0.0000 C   0  0  0  0  0  0  0  0  0  0  0  0
   -0.0088   -2.9920    0.0000 C   0  0  0  0  0  0  0  0  0  0  0  0
   -0.8798   -3.4834    0.0000 C   0  0  0  0  0  0  0  0  0  0  0  0
   -0.8869   -4.4886    0.0000 C   0  0  0  0  0  0  0  0  0  0  0  0
   -1.7578   -4.9799    0.0000 C   0  0  0  0  0  0  0  0  0  0  0  0
   -1.7678   -5.9799    0.0000 N   0  0  0  0  0  0  0  0  0  0  0  0
   -2.6388   -6.4712    0.0000 C   0  0  0  0  0  0  0  0  0  0  0  0
   -3.4998   -5.9626    0.0000 O   0  0  0  0  0  0  0  0  0  0  0  0
   -2.6488   -7.4711    0.0000 O   0  0  0  0  0  0  0  0  0  0  0  0
   -3.5197   -7.9625    0.0000 C   0  0  0  0  0  0  0  0  0  0  0  0
   -3.5297   -8.9624    0.0000 C   0  0  0  0  0  0  0  0  0  0  0  0
   -3.5397   -9.9624    0.0000 C   0  0  0  0  0  0  0  0  0  0  0  0
   -4.5297   -8.9525    0.0000 C   0  0  0  0  0  0  0  0  0  0  0  0
   -2.5298   -8.9724    0.0000 C   0  0  0  0  0  0  0  0  0  0  0  0
   -0.0230   -5.0024    0.0000 C   0  0  0  0  0  0  0  0  0  0  0  0
    0.8481   -4.5008    0.0000 C   0  0  0  0  0  0  0  0  0  0  0  0
    1.7371    0.0000    0.0000 C   0  0  0  0  0  0  0  0  0  0  0  0
    0.8707   -0.4993    0.0000 C   0  0  0  0  0  0  0  0  0  0  0  0
    0.0000    0.0000    0.0000 C   0  0  0  0  0  0  0  0  0  0  0  0
    0.0000    1.0089    0.0000 C   0  0  0  0  0  0  0  0  0  0  0  0
    0.8707    1.5185    0.0000 C   0  0  0  0  0  0  0  0  0  0  0  0
    1.7414    1.0089    0.0000 C   0  0  0  0  0  0  0  0  0  0  0  0
    2.6125    1.5125    0.0000 N   0  0  0  0  0  0  0  0  0  0  0  0
  1  2  1  0
  2  3  1  0
  2  4  1  0
  4  5  1  0
  5  6  1  0
  6 11  1  0
  6  7  1  0
  7  8  1  0
  8  9  1  0
  9 10  1  0
 10 11  1  0
  9 12  1  0
 12 41  1  0
 12 13  2  0
 13 14  1  0
 14 15  1  0
 15 16  2  0
 15 17  1  0
 17 18  1  0
 19 18  1  1
 19 34  1  0
 19 20  1  0
 20 21  1  0
 21 22  1  0
 22 23  1  6
 23 24  1  0
 24 25  1  0
 25 26  2  0
 25 27  1  0
 27 28  1  0
 28 29  1  0
 29 30  1  0
 29 31  1  0
 29 32  1  0
 22 33  1  0
 33 34  1  0
 14 35  2  0
 35 40  1  0
 35 36  1  0
 36 37  2  0
 37 38  1  0
 38 39  2  0
 39 40  1  0
 40 41  2  0
M  END
>  <SMILES>  (867) 
CN(C)CCC1CCN(c2cc(C(=O)NC[C@H]3CC[C@H](CNC(=O)OCC(C)(C)C)CC3)c3ccccc3n2)CC1

>  <CollectionName>  (867) 
chembl

>  <LOG PLASMA PROTEIN BINDING (RAT) (% unbound)>  (867) 
0.123851640967

>  <Internal ID>  (867) 


>  <Source>  (867) 
AstraZeneca

$$$$
CHEMBL1352569
     RDKit          2D

 25 27  0  0  0  0  0  0  0  0999 V2000
    4.7085    2.1305    0.0000 C   0  0  0  0  0  0  0  0  0  0  0  0
    5.2111    2.9951    0.0000 C   0  0  0  0  0  0  0  0  0  0  0  0
    5.7136    3.8596    0.0000 C   0  0  0  0  0  0  0  0  0  0  0  0
    6.0756    2.4925    0.0000 O   0  0  0  0  0  0  0  0  0  0  0  0
    6.0727    1.4925    0.0000 C   0  0  0  0  0  0  0  0  0  0  0  0
    5.2059    0.9938    0.0000 C   0  0  0  0  0  0  0  0  0  0  0  0
    5.1985   -0.0062    0.0000 C   0  0  0  0  0  0  0  0  0  0  0  0
    6.0669   -0.5126    0.0000 C   0  0  0  0  0  0  0  0  0  0  0  0
    6.0595   -1.5126    0.0000 Cl  0  0  0  0  0  0  0  0  0  0  0  0
    6.9425   -0.0190    0.0000 C   0  0  0  0  0  0  0  0  0  0  0  0
    6.9410    0.9861    0.0000 C   0  0  0  0  0  0  0  0  0  0  0  0
    4.3465    3.4976    0.0000 C   0  0  0  0  0  0  0  0  0  0  0  0
    4.3495    4.4976    0.0000 O   0  0  0  0  0  0  0  0  0  0  0  0
    3.4790    3.0002    0.0000 N   0  0  0  0  0  0  0  0  0  0  0  0
    2.6071    3.5002    0.0000 C   0  0  0  0  0  0  0  0  0  0  0  0
    1.7350    3.0002    0.0000 C   0  0  0  0  0  0  0  0  0  0  0  0
    1.7350    2.0001    0.0000 N   0  0  0  0  0  0  0  0  0  0  0  0
    2.5981    1.4951    0.0000 C   0  0  0  0  0  0  0  0  0  0  0  0
    3.4701    1.9951    0.0000 C   0  0  0  0  0  0  0  0  0  0  0  0
    0.8675    1.5027    0.0000 C   0  0  0  0  0  0  0  0  0  0  0  0
    0.8675    0.4975    0.0000 C   0  0  0  0  0  0  0  0  0  0  0  0
    0.0000    0.0000    0.0000 C   0  0  0  0  0  0  0  0  0  0  0  0
   -0.8675    0.4975    0.0000 C   0  0  0  0  0  0  0  0  0  0  0  0
   -0.8675    1.5027    0.0000 C   0  0  0  0  0  0  0  0  0  0  0  0
   -0.0000    2.0104    0.0000 N   0  0  0  0  0  0  0  0  0  0  0  0
  1  2  1  0
  2  3  1  0
  2  4  1  0
  4  5  1  0
  5 11  1  0
  5  6  2  0
  6  7  1  0
  7  8  2  0
  8  9  1  0
  8 10  1  0
 10 11  2  0
  2 12  1  0
 12 13  2  0
 12 14  1  0
 14 19  1  0
 14 15  1  0
 15 16  1  0
 16 17  1  0
 17 18  1  0
 18 19  1  0
 17 20  1  0
 20 25  1  0
 20 21  2  0
 21 22  1  0
 22 23  2  0
 23 24  1  0
 24 25  2  0
M  END
>  <SMILES>  (868) 
CC(C)(Oc1ccc(Cl)cc1)C(=O)N1CCN(c2ccccn2)CC1

>  <CollectionName>  (868) 
chembl

>  <LOG PLASMA PROTEIN BINDING (RAT) (% unbound)>  (868) 
-0.0362121726544

>  <Internal ID>  (868) 


>  <Source>  (868) 
AstraZeneca

$$$$
CHEMBL1353474
     RDKit          2D

 20 21  0  0  0  0  0  0  0  0999 V2000
    0.8703   -6.5051    0.0000 C   0  0  0  0  0  0  0  0  0  0  0  0
    0.8659   -5.5052    0.0000 C   0  0  0  0  0  0  0  0  0  0  0  0
    1.7357   -5.0013    0.0000 C   0  0  0  0  0  0  0  0  0  0  0  0
    1.7314   -4.0013    0.0000 C   0  0  0  0  0  0  0  0  0  0  0  0
    2.5967   -3.5000    0.0000 C   0  0  0  0  0  0  0  0  0  0  0  0
    0.8660   -3.5000    0.0000 C   0  0  0  0  0  0  0  0  0  0  0  0
   -0.0038   -4.0039    0.0000 C   0  0  0  0  0  0  0  0  0  0  0  0
   -0.8690   -3.5026    0.0000 C   0  0  0  0  0  0  0  0  0  0  0  0
   -0.0082   -5.0090    0.0000 C   0  0  0  0  0  0  0  0  0  0  0  0
    0.8660   -2.5000    0.0000 S   0  0  0  0  0  0  0  0  0  0  0  0
   -0.1340   -2.5000    0.0000 O   0  0  0  0  0  0  0  0  0  0  0  0
    1.8660   -2.5000    0.0000 O   0  0  0  0  0  0  0  0  0  0  0  0
    0.8660   -1.5000    0.0000 N   0  0  0  0  0  0  0  0  0  0  0  0
    0.0000   -1.0000    0.0000 C   0  0  0  0  0  0  0  0  0  0  0  0
    0.0000    0.0000    0.0000 C   0  0  0  0  0  0  0  0  0  0  0  0
   -0.8675    0.4975    0.0000 C   0  0  0  0  0  0  0  0  0  0  0  0
   -0.8675    1.5027    0.0000 C   0  0  0  0  0  0  0  0  0  0  0  0
   -0.0000    2.0104    0.0000 N   0  0  0  0  0  0  0  0  0  0  0  0
    0.8675    1.5027    0.0000 C   0  0  0  0  0  0  0  0  0  0  0  0
    0.8675    0.4975    0.0000 C   0  0  0  0  0  0  0  0  0  0  0  0
  1  2  1  0
  2  9  2  0
  2  3  1  0
  3  4  2  0
  4  5  1  0
  4  6  1  0
  6  7  2  0
  7  8  1  0
  7  9  1  0
  6 10  1  0
 10 11  2  0
 10 12  2  0
 10 13  1  0
 13 14  1  0
 14 15  1  0
 15 20  1  0
 15 16  2  0
 16 17  1  0
 17 18  2  0
 18 19  1  0
 19 20  2  0
M  END
>  <SMILES>  (869) 
Cc1cc(C)c(S(=O)(=O)NCc2ccncc2)c(C)c1

>  <CollectionName>  (869) 
chembl

>  <LOG PLASMA PROTEIN BINDING (RAT) (% unbound)>  (869) 
1.14457420761

>  <Internal ID>  (869) 


>  <Source>  (869) 
AstraZeneca

$$$$
CHEMBL1503948
     RDKit          2D

 21 23  0  0  0  0  0  0  0  0999 V2000
   -5.1879   -1.0237    0.0000 C   0  0  0  0  0  0  0  0  0  0  0  0
   -4.3256   -0.5173    0.0000 C   0  0  0  0  0  0  0  0  0  0  0  0
   -3.4552   -1.0097    0.0000 C   0  0  0  0  0  0  0  0  0  0  0  0
   -2.5907   -0.5071    0.0000 C   0  0  0  0  0  0  0  0  0  0  0  0
   -2.5966    0.4981    0.0000 C   0  0  0  0  0  0  0  0  0  0  0  0
   -3.4671    1.0007    0.0000 C   0  0  0  0  0  0  0  0  0  0  0  0
   -4.3316    0.4879    0.0000 C   0  0  0  0  0  0  0  0  0  0  0  0
   -1.7320    1.0007    0.0000 S   0  0  0  0  0  0  0  0  0  0  0  0
   -2.2346    1.8652    0.0000 O   0  0  0  0  0  0  0  0  0  0  0  0
   -1.2295    0.1361    0.0000 O   0  0  0  0  0  0  0  0  0  0  0  0
   -0.8675    1.5032    0.0000 N   0  0  0  0  0  0  0  0  0  0  0  0
   -0.0000    1.0058    0.0000 C   0  0  0  0  0  0  0  0  0  0  0  0
    0.0000    0.0000    0.0000 C   0  0  0  0  0  0  0  0  0  0  0  0
    0.8680   -0.4978    0.0000 C   0  0  0  0  0  0  0  0  0  0  0  0
    1.7360   -0.0012    0.0000 C   0  0  0  0  0  0  0  0  0  0  0  0
    2.6938   -0.3125    0.0000 N   0  0  0  0  0  0  0  0  0  0  0  0
    3.2858    0.5023    0.0000 C   0  0  0  0  0  0  0  0  0  0  0  0
    4.2858    0.5024    0.0000 C   0  0  0  0  0  0  0  0  0  0  0  0
    2.6938    1.3169    0.0000 S   0  0  0  0  0  0  0  0  0  0  0  0
    1.7360    1.0058    0.0000 C   0  0  0  0  0  0  0  0  0  0  0  0
    0.8680    1.5138    0.0000 C   0  0  0  0  0  0  0  0  0  0  0  0
  1  2  1  0
  2  7  2  0
  2  3  1  0
  3  4  2  0
  4  5  1  0
  5  6  2  0
  6  7  1  0
  5  8  1  0
  8  9  2  0
  8 10  2  0
  8 11  1  0
 11 12  1  0
 12 21  1  0
 12 13  2  0
 13 14  1  0
 14 15  2  0
 15 20  1  0
 15 16  1  0
 16 17  2  0
 17 18  1  0
 17 19  1  0
 19 20  1  0
 20 21  2  0
M  END
>  <SMILES>  (870) 
Cc1ccc(S(=O)(=O)Nc2ccc3nc(C)sc3c2)cc1

>  <CollectionName>  (870) 
chembl

>  <LOG PLASMA PROTEIN BINDING (RAT) (% unbound)>  (870) 
-0.275724130399

>  <Internal ID>  (870) 


>  <Source>  (870) 
AstraZeneca

$$$$
CHEMBL1766081
     RDKit          2D

 28 30  0  0  0  0  0  0  0  0999 V2000
    9.5574    4.4695    0.0000 C   0  0  0  0  0  0  0  0  0  0  0  0
    9.5530    3.4695    0.0000 C   0  0  0  0  0  0  0  0  0  0  0  0
   10.4168    2.9657    0.0000 C   0  0  0  0  0  0  0  0  0  0  0  0
    8.6848    2.9734    0.0000 O   0  0  0  0  0  0  0  0  0  0  0  0
    8.6804    1.9734    0.0000 C   0  0  0  0  0  0  0  0  0  0  0  0
    9.5442    1.4696    0.0000 O   0  0  0  0  0  0  0  0  0  0  0  0
    7.8122    1.4772    0.0000 N   0  0  0  0  0  0  0  0  0  0  0  0
    6.9409    1.9785    0.0000 C   0  0  0  0  0  0  0  0  0  0  0  0
    6.0682    1.4797    0.0000 C   0  0  0  0  0  0  0  0  0  0  0  0
    6.0667    0.4797    0.0000 C   0  0  0  0  0  0  0  0  0  0  0  0
    6.9291   -0.0267    0.0000 C   0  0  0  0  0  0  0  0  0  0  0  0
    7.8018    0.4721    0.0000 C   0  0  0  0  0  0  0  0  0  0  0  0
    5.1985   -0.0165    0.0000 O   0  0  0  0  0  0  0  0  0  0  0  0
    4.3347    0.4873    0.0000 C   0  0  0  0  0  0  0  0  0  0  0  0
    4.3420    1.4873    0.0000 N   0  0  0  0  0  0  0  0  0  0  0  0
    3.4737    1.9937    0.0000 C   0  0  0  0  0  0  0  0  0  0  0  0
    2.5980    1.5001    0.0000 N   0  0  0  0  0  0  0  0  0  0  0  0
    2.5995    0.4950    0.0000 C   0  0  0  0  0  0  0  0  0  0  0  0
    1.7328   -0.0038    0.0000 O   0  0  0  0  0  0  0  0  0  0  0  0
    0.8675    0.4975    0.0000 C   0  0  0  0  0  0  0  0  0  0  0  0
    0.0000    0.0000    0.0000 C   0  0  0  0  0  0  0  0  0  0  0  0
   -0.8675    0.4975    0.0000 C   0  0  0  0  0  0  0  0  0  0  0  0
   -0.8675    1.5027    0.0000 C   0  0  0  0  0  0  0  0  0  0  0  0
   -0.0000    2.0104    0.0000 N   0  0  0  0  0  0  0  0  0  0  0  0
    0.8675    1.5027    0.0000 C   0  0  0  0  0  0  0  0  0  0  0  0
    1.7350    2.0001    0.0000 C   0  0  0  0  0  0  0  0  0  0  0  0
    3.4679   -0.0114    0.0000 C   0  0  0  0  0  0  0  0  0  0  0  0
    3.4649   -1.0114    0.0000 C   0  0  0  0  0  0  0  0  0  0  0  0
  1  2  1  0
  2  3  1  0
  2  4  1  0
  4  5  1  0
  5  6  2  0
  5  7  1  0
  7 12  1  0
  7  8  1  0
  8  9  1  0
  9 10  1  0
 10 11  1  0
 11 12  1  0
 10 13  1  0
 13 14  1  0
 14 27  1  0
 14 15  2  0
 15 16  1  0
 16 17  2  0
 17 18  1  0
 18 19  1  0
 19 20  1  0
 20 25  1  0
 20 21  2  0
 21 22  1  0
 22 23  2  0
 23 24  1  0
 24 25  2  0
 25 26  1  0
 18 27  2  0
 27 28  1  0
M  END
>  <SMILES>  (871) 
Cc1ncccc1Oc1ncnc(OC2CCN(C(=O)OC(C)C)CC2)c1C

>  <CollectionName>  (871) 
chembl

>  <LOG PLASMA PROTEIN BINDING (RAT) (% unbound)>  (871) 
0.495544337546

>  <Internal ID>  (871) 


>  <Source>  (871) 
AstraZeneca

$$$$
CHEMBL1770297
     RDKit          2D

 30 33  0  0  1  0  0  0  0  0999 V2000
    5.1239    7.6900    0.0000 C   0  0  0  0  0  0  0  0  0  0  0  0
    5.1253    6.6900    0.0000 C   0  0  0  0  0  0  0  0  0  0  0  0
    5.9921    6.1913    0.0000 O   0  0  0  0  0  0  0  0  0  0  0  0
    5.9935    5.1913    0.0000 C   0  0  0  0  0  0  0  0  0  0  0  0
    6.8646    4.6884    0.0000 C   0  0  0  0  0  0  0  0  0  0  0  0
    6.8705    3.6827    0.0000 C   0  0  0  0  0  0  0  0  0  0  0  0
    5.9966    3.1850    0.0000 C   0  0  0  0  0  0  0  0  0  0  0  0
    5.7871    2.2000    0.0000 O   0  0  0  0  0  0  0  0  0  0  0  0
    4.7856    2.0946    0.0000 C   0  0  0  0  0  0  0  0  0  0  0  0
    4.2857    1.2285    0.0000 C   0  0  0  0  0  0  0  0  0  0  0  0
    3.2857    1.2285    0.0000 O   0  0  0  0  0  0  0  0  0  0  0  0
    4.7857    0.3625    0.0000 N   0  0  0  0  0  0  0  0  0  0  0  0
    4.2858   -0.5035    0.0000 C   0  0  0  0  0  0  0  0  0  0  0  0
    4.7859   -1.3695    0.0000 C   0  0  0  0  0  0  0  0  0  0  0  0
    4.2859   -2.2356    0.0000 C   0  0  0  0  0  0  0  0  0  0  0  0
    4.7860   -3.1016    0.0000 S   0  0  0  0  0  0  0  0  0  0  0  0
    4.2860   -3.9676    0.0000 C   0  0  0  0  0  0  0  0  0  0  0  0
    3.2858   -0.5036    0.0000 C   0  0  0  0  0  0  0  0  0  0  0  0
    2.6938   -1.3184    0.0000 N   0  0  0  0  0  0  0  0  0  0  0  0
    1.7360   -1.0071    0.0000 C   0  0  0  0  0  0  0  0  0  0  0  0
    0.8680   -1.5037    0.0000 C   0  0  0  0  0  0  0  0  0  0  0  0
    0.0000   -1.0058    0.0000 C   0  0  0  0  0  0  0  0  0  0  0  0
    0.0000    0.0000    0.0000 C   0  0  0  0  0  0  0  0  0  0  0  0
    0.8680    0.5079    0.0000 C   0  0  0  0  0  0  0  0  0  0  0  0
    1.7360   -0.0000    0.0000 C   0  0  0  0  0  0  0  0  0  0  0  0
    2.6938    0.3110    0.0000 N   0  0  0  0  0  0  0  0  0  0  0  0
    4.3760    3.0147    0.0000 C   0  0  0  0  0  0  0  0  0  0  0  0
    3.3979    3.2226    0.0000 C   0  0  0  0  0  0  0  0  0  0  0  0
    5.1245    3.6885    0.0000 C   0  0  0  0  0  0  0  0  0  0  0  0
    5.1284    4.6885    0.0000 C   0  0  0  0  0  0  0  0  0  0  0  0
  1  2  1  0
  2  3  1  0
  3  4  1  0
  4 30  2  0
  4  5  1  0
  5  6  2  0
  6  7  1  0
  7 29  2  0
  7  8  1  0
  8  9  1  0
  9 10  1  0
 10 11  2  0
 10 12  1  0
 12 13  1  0
 13 14  1  0
 14 15  1  0
 15 16  1  0
 16 17  1  0
 13 18  1  0
 18 26  1  0
 18 19  2  0
 19 20  1  0
 20 25  2  0
 20 21  1  0
 21 22  2  0
 22 23  1  0
 23 24  2  0
 24 25  1  0
 25 26  1  0
  9 27  2  0
 27 28  1  0
 27 29  1  0
 29 30  1  0
M  END
>  <SMILES>  (872) 
CCOc1ccc2oc(C(=O)NC(CCSC)c3nc4ccccc4[nH]3)c(C)c2c1

>  <CollectionName>  (872) 
chembl

>  <LOG PLASMA PROTEIN BINDING (RAT) (% unbound)>  (872) 
-0.0457574905607

>  <Internal ID>  (872) 


>  <Source>  (872) 
AstraZeneca

$$$$
CHEMBL1774053
     RDKit          2D

 28 31  0  0  1  0  0  0  0  0999 V2000
   -2.5966    0.4976    0.0000 C   0  0  0  0  0  0  0  0  0  0  0  0
   -2.5995    1.4976    0.0000 C   0  0  0  0  0  0  0  0  0  0  0  0
   -1.7350    2.0001    0.0000 N   0  0  0  0  0  0  0  0  0  0  0  0
   -0.8675    1.5027    0.0000 C   0  0  0  0  0  0  0  0  0  0  0  0
   -0.0000    2.0104    0.0000 N   0  0  0  0  0  0  0  0  0  0  0  0
    0.8675    1.5027    0.0000 C   0  0  0  0  0  0  0  0  0  0  0  0
    1.7350    2.0001    0.0000 N   0  0  0  0  0  0  0  0  0  0  0  0
    2.5995    1.4976    0.0000 C   0  0  0  0  0  0  0  0  0  0  0  0
    2.6981    0.5024    0.0000 C   0  0  0  0  0  0  0  0  0  0  0  0
    3.6770    0.2909    0.0000 C   0  0  0  0  0  0  0  0  0  0  0  0
    4.1828    1.1555    0.0000 N   0  0  0  0  0  0  0  0  0  0  0  0
    3.5134    1.9046    0.0000 N   0  0  0  0  0  0  0  0  0  0  0  0
    4.0795   -0.6245    0.0000 C   0  0  0  0  0  0  0  0  0  0  0  0
    3.9713   -1.6205    0.0000 C   0  0  0  0  0  0  0  0  0  0  0  0
    4.8867   -1.2180    0.0000 C   0  0  0  0  0  0  0  0  0  0  0  0
    0.8675    0.4975    0.0000 C   0  0  0  0  0  0  0  0  0  0  0  0
    1.7328   -0.0038    0.0000 F   0  0  0  0  0  0  0  0  0  0  0  0
    0.0000    0.0000    0.0000 C   0  0  0  0  0  0  0  0  0  0  0  0
   -0.8675    0.4975    0.0000 C   0  0  0  0  0  0  0  0  0  0  0  0
   -1.7328   -0.0038    0.0000 C   0  0  0  0  0  0  0  0  0  0  0  0
   -2.5981   -0.5050    0.0000 N   0  0  0  0  0  0  0  0  0  0  0  0
   -3.4670    1.9950    0.0000 C   0  0  0  0  0  0  0  0  0  0  0  0
   -3.4714    2.9951    0.0000 C   0  0  0  0  0  0  0  0  0  0  0  0
   -4.3368    3.4963    0.0000 C   0  0  0  0  0  0  0  0  0  0  0  0
   -5.2066    2.9924    0.0000 C   0  0  0  0  0  0  0  0  0  0  0  0
   -6.0719    3.4936    0.0000 F   0  0  0  0  0  0  0  0  0  0  0  0
   -5.2110    1.9872    0.0000 C   0  0  0  0  0  0  0  0  0  0  0  0
   -4.3368    1.4911    0.0000 C   0  0  0  0  0  0  0  0  0  0  0  0
  2  1  1  1
  2  3  1  0
  3  4  1  0
  4 19  1  0
  4  5  2  0
  5  6  1  0
  6  7  1  0
  7  8  1  0
  8 12  2  0
  8  9  1  0
  9 10  2  0
 10 11  1  0
 11 12  1  0
 10 13  1  0
 13 15  1  0
 13 14  1  0
 14 15  1  0
  6 16  2  0
 16 17  1  0
 16 18  1  0
 18 19  2  0
 19 20  1  0
 20 21  3  0
  2 22  1  0
 22 28  1  0
 22 23  2  0
 23 24  1  0
 24 25  2  0
 25 26  1  0
 25 27  1  0
 27 28  2  0
M  END
>  <SMILES>  (873) 
C[C@H](Nc1nc(Nc2cc(C3CC3)[nH]n2)c(F)cc1C#N)c1ccc(F)cc1

>  <CollectionName>  (873) 
chembl

>  <LOG PLASMA PROTEIN BINDING (RAT) (% unbound)>  (873) 
-0.698970004336

>  <Internal ID>  (873) 


>  <Source>  (873) 
AstraZeneca

$$$$
CHEMBL1778623
     RDKit          2D

 29 30  0  0  0  0  0  0  0  0999 V2000
    4.3404    3.4975    0.0000 C   0  0  0  0  0  0  0  0  0  0  0  0
    3.4729    3.0001    0.0000 C   0  0  0  0  0  0  0  0  0  0  0  0
    3.4700    2.0001    0.0000 N   0  0  0  0  0  0  0  0  0  0  0  0
    4.3345    1.4975    0.0000 C   0  0  0  0  0  0  0  0  0  0  0  0
    4.3316    0.4975    0.0000 C   0  0  0  0  0  0  0  0  0  0  0  0
    2.6025    1.5026    0.0000 S   0  0  0  0  0  0  0  0  0  0  0  0
    2.1051    2.3701    0.0000 O   0  0  0  0  0  0  0  0  0  0  0  0
    3.0999    0.6351    0.0000 O   0  0  0  0  0  0  0  0  0  0  0  0
    1.7350    1.0052    0.0000 C   0  0  0  0  0  0  0  0  0  0  0  0
    1.7350    0.0000    0.0000 C   0  0  0  0  0  0  0  0  0  0  0  0
    0.8675   -0.4975    0.0000 C   0  0  0  0  0  0  0  0  0  0  0  0
    0.0000    0.0000    0.0000 C   0  0  0  0  0  0  0  0  0  0  0  0
   -0.0000    1.0052    0.0000 C   0  0  0  0  0  0  0  0  0  0  0  0
    0.8675    1.5129    0.0000 C   0  0  0  0  0  0  0  0  0  0  0  0
   -0.8653   -0.5013    0.0000 C   0  0  0  0  0  0  0  0  0  0  0  0
   -1.7350    0.0026    0.0000 C   0  0  0  0  0  0  0  0  0  0  0  0
   -2.6003   -0.5089    0.0000 C   0  0  0  0  0  0  0  0  0  0  0  0
   -2.5959   -1.5141    0.0000 C   0  0  0  0  0  0  0  0  0  0  0  0
   -1.7262   -2.0078    0.0000 C   0  0  0  0  0  0  0  0  0  0  0  0
   -0.8609   -1.5064    0.0000 C   0  0  0  0  0  0  0  0  0  0  0  0
    0.0066   -2.0039    0.0000 O   0  0  0  0  0  0  0  0  0  0  0  0
    0.8712   -1.5013    0.0000 C   0  0  0  0  0  0  0  0  0  0  0  0
    1.7387   -1.9988    0.0000 C   0  0  0  0  0  0  0  0  0  0  0  0
    1.7416   -2.9988    0.0000 O   0  0  0  0  0  0  0  0  0  0  0  0
    2.6032   -1.4962    0.0000 O   0  0  0  0  0  0  0  0  0  0  0  0
   -3.4700   -0.0153    0.0000 C   0  0  0  0  0  0  0  0  0  0  0  0
   -3.9636   -0.8850    0.0000 F   0  0  0  0  0  0  0  0  0  0  0  0
   -2.9763    0.8544    0.0000 F   0  0  0  0  0  0  0  0  0  0  0  0
   -4.3396    0.4783    0.0000 F   0  0  0  0  0  0  0  0  0  0  0  0
  1  2  1  0
  2  3  1  0
  3  4  1  0
  4  5  1  0
  3  6  1  0
  6  7  2  0
  6  8  2  0
  6  9  1  0
  9 14  2  0
  9 10  1  0
 10 11  2  0
 11 12  1  0
 12 13  2  0
 13 14  1  0
 12 15  1  0
 15 20  1  0
 15 16  2  0
 16 17  1  0
 17 18  2  0
 18 19  1  0
 19 20  2  0
 20 21  1  0
 21 22  1  0
 22 23  1  0
 23 24  2  0
 23 25  1  0
 17 26  1  0
 26 27  1  0
 26 28  1  0
 26 29  1  0
M  END
>  <SMILES>  (874) 
CCN(CC)S(=O)(=O)c1ccc(-c2cc(C(F)(F)F)ccc2OCC(=O)O)cc1

>  <CollectionName>  (874) 
chembl

>  <LOG PLASMA PROTEIN BINDING (RAT) (% unbound)>  (874) 
0.25285303098

>  <Internal ID>  (874) 


>  <Source>  (874) 
AstraZeneca

$$$$
CHEMBL2337980
     RDKit          2D

 29 30  0  0  0  0  0  0  0  0999 V2000
    3.4641    7.0104    0.0000 C   0  0  0  0  0  0  0  0  0  0  0  0
    2.5981    6.5104    0.0000 C   0  0  0  0  0  0  0  0  0  0  0  0
    3.0981    5.6444    0.0000 C   0  0  0  0  0  0  0  0  0  0  0  0
    2.0981    7.3764    0.0000 C   0  0  0  0  0  0  0  0  0  0  0  0
    1.7321    6.0104    0.0000 N   0  0  0  0  0  0  0  0  0  0  0  0
    1.7321    5.0104    0.0000 C   0  0  0  0  0  0  0  0  0  0  0  0
    2.5981    4.5104    0.0000 O   0  0  0  0  0  0  0  0  0  0  0  0
    0.8660    4.5104    0.0000 N   0  0  0  0  0  0  0  0  0  0  0  0
    0.8660    3.5104    0.0000 C   0  0  0  0  0  0  0  0  0  0  0  0
   -0.0000    3.0104    0.0000 C   0  0  0  0  0  0  0  0  0  0  0  0
   -0.0000    2.0104    0.0000 N   0  0  0  0  0  0  0  0  0  0  0  0
   -0.8675    1.5027    0.0000 C   0  0  0  0  0  0  0  0  0  0  0  0
   -0.8675    0.4975    0.0000 C   0  0  0  0  0  0  0  0  0  0  0  0
    0.0000    0.0000    0.0000 C   0  0  0  0  0  0  0  0  0  0  0  0
   -0.6420   -0.7667    0.0000 O   0  0  0  0  0  0  0  0  0  0  0  0
    0.6420   -0.7667    0.0000 C   0  0  0  0  0  0  0  0  0  0  0  0
    1.6270   -0.5940    0.0000 N   0  0  0  0  0  0  0  0  0  0  0  0
    2.2691   -1.3606    0.0000 C   0  0  0  0  0  0  0  0  0  0  0  0
    1.9261   -2.3000    0.0000 O   0  0  0  0  0  0  0  0  0  0  0  0
    3.2540   -1.1879    0.0000 C   0  0  0  0  0  0  0  0  0  0  0  0
    3.5943   -0.2476    0.0000 C   0  0  0  0  0  0  0  0  0  0  0  0
    4.5844   -0.0740    0.0000 C   0  0  0  0  0  0  0  0  0  0  0  0
    4.9245    0.8664    0.0000 Cl  0  0  0  0  0  0  0  0  0  0  0  0
    5.2342   -0.8408    0.0000 C   0  0  0  0  0  0  0  0  0  0  0  0
    4.8840   -1.7829    0.0000 C   0  0  0  0  0  0  0  0  0  0  0  0
    5.5238   -2.5515    0.0000 Cl  0  0  0  0  0  0  0  0  0  0  0  0
    3.8939   -1.9565    0.0000 C   0  0  0  0  0  0  0  0  0  0  0  0
    0.8675    0.4975    0.0000 C   0  0  0  0  0  0  0  0  0  0  0  0
    0.8675    1.5027    0.0000 C   0  0  0  0  0  0  0  0  0  0  0  0
  1  2  1  0
  2  3  1  0
  2  4  1  0
  2  5  1  0
  5  6  1  0
  6  7  2  0
  6  8  1  0
  8  9  1  0
  9 10  1  0
 10 11  1  0
 11 29  1  0
 11 12  1  0
 12 13  1  0
 13 14  1  0
 14 15  1  0
 14 16  1  0
 16 17  1  0
 17 18  1  0
 18 19  2  0
 18 20  1  0
 20 27  1  0
 20 21  2  0
 21 22  1  0
 22 23  1  0
 22 24  2  0
 24 25  1  0
 25 26  1  0
 25 27  2  0
 14 28  1  0
 28 29  1  0
M  END
>  <SMILES>  (875) 
CC(C)(C)NC(=O)NCCN1CCC(O)(CNC(=O)c2cc(Cl)cc(Cl)c2)CC1

>  <CollectionName>  (875) 
chembl

>  <LOG PLASMA PROTEIN BINDING (RAT) (% unbound)>  (875) 
1.36530074864

>  <Internal ID>  (875) 


>  <Source>  (875) 
AstraZeneca

$$$$
CHEMBL126
     RDKit          2D

 24 26  0  0  1  0  0  0  0  0999 V2000
    4.5521   -7.4286    0.0000 C   0  0  0  0  0  0  0  0  0  0  0  0
    3.5582   -7.5392    0.0000 C   0  0  0  0  0  0  0  0  0  0  0  0
    3.1570   -8.4551    0.0000 O   0  0  0  0  0  0  0  0  0  0  0  0
    2.9656   -6.7337    0.0000 N   0  0  0  0  0  0  0  0  0  0  0  0
    1.9717   -6.8442    0.0000 C   0  0  0  0  0  0  0  0  0  0  0  0
    1.3791   -6.0388    0.0000 C   0  0  0  0  0  0  0  0  0  0  0  0
    1.6853   -5.0868    0.0000 C   0  0  0  0  0  0  0  0  0  0  0  0
    0.8718   -4.5026    0.0000 N   0  0  0  0  0  0  0  0  0  0  0  0
    0.0633   -5.0940    0.0000 C   0  0  0  0  0  0  0  0  0  0  0  0
   -0.8890   -4.7890    0.0000 O   0  0  0  0  0  0  0  0  0  0  0  0
    0.3787   -6.0479    0.0000 O   0  0  0  0  0  0  0  0  0  0  0  0
    0.8674   -3.5027    0.0000 C   0  0  0  0  0  0  0  0  0  0  0  0
    1.7372   -2.9988    0.0000 C   0  0  0  0  0  0  0  0  0  0  0  0
    1.7328   -1.9988    0.0000 C   0  0  0  0  0  0  0  0  0  0  0  0
    0.8675   -1.4975    0.0000 C   0  0  0  0  0  0  0  0  0  0  0  0
    0.8675   -0.4975    0.0000 N   0  0  0  0  0  0  0  0  0  0  0  0
    0.0000    0.0000    0.0000 C   0  0  0  0  0  0  0  0  0  0  0  0
    0.0000    1.0052    0.0000 C   0  0  0  0  0  0  0  0  0  0  0  0
    0.8675    1.5129    0.0000 O   0  0  0  0  0  0  0  0  0  0  0  0
    1.7350    1.0052    0.0000 C   0  0  0  0  0  0  0  0  0  0  0  0
    1.7350    0.0000    0.0000 C   0  0  0  0  0  0  0  0  0  0  0  0
   -0.0023   -2.0014    0.0000 C   0  0  0  0  0  0  0  0  0  0  0  0
   -0.8676   -1.5001    0.0000 F   0  0  0  0  0  0  0  0  0  0  0  0
   -0.0068   -3.0065    0.0000 C   0  0  0  0  0  0  0  0  0  0  0  0
  1  2  1  0
  2  3  2  0
  2  4  1  0
  4  5  1  0
  6  5  1  6
  6 11  1  0
  6  7  1  0
  7  8  1  0
  8  9  1  0
  9 10  2  0
  9 11  1  0
  8 12  1  0
 12 24  1  0
 12 13  2  0
 13 14  1  0
 14 15  2  0
 15 16  1  0
 16 21  1  0
 16 17  1  0
 17 18  1  0
 18 19  1  0
 19 20  1  0
 20 21  1  0
 15 22  1  0
 22 23  1  0
 22 24  2  0
M  END
>  <SMILES>  (876) 
CC(=O)NC[C@H]1CN(c2ccc(N3CCOCC3)c(F)c2)C(=O)O1

>  <CollectionName>  (876) 
chembl

>  <LOG PLASMA PROTEIN BINDING (RAT) (% unbound)>  (876) 
1.8899736384

>  <Internal ID>  (876) 


>  <Source>  (876) 
AstraZeneca

$$$$
CHEMBL475534
     RDKit          2D

 26 27  0  0  1  0  0  0  0  0999 V2000
    3.4634   -1.0063    0.0000 C   0  0  0  0  0  0  0  0  0  0  0  0
    2.5966   -1.5050    0.0000 C   0  0  0  0  0  0  0  0  0  0  0  0
    1.7313   -1.0038    0.0000 O   0  0  0  0  0  0  0  0  0  0  0  0
    1.7328   -0.0038    0.0000 C   0  0  0  0  0  0  0  0  0  0  0  0
    2.5995    0.4950    0.0000 O   0  0  0  0  0  0  0  0  0  0  0  0
    0.8675    0.4975    0.0000 C   0  0  0  0  0  0  0  0  0  0  0  0
    0.8675    1.5027    0.0000 C   0  0  0  0  0  0  0  0  0  0  0  0
    1.7350    2.0001    0.0000 C   0  0  0  0  0  0  0  0  0  0  0  0
   -0.0000    2.0104    0.0000 N   0  0  0  0  0  0  0  0  0  0  0  0
   -0.8675    1.5027    0.0000 C   0  0  0  0  0  0  0  0  0  0  0  0
   -0.8675    0.4975    0.0000 C   0  0  0  0  0  0  0  0  0  0  0  0
    0.0000    0.0000    0.0000 C   0  0  0  0  0  0  0  0  0  0  0  0
    0.0000   -1.0000    0.0000 C   0  0  0  0  0  0  0  0  0  0  0  0
   -0.8720   -1.5000    0.0000 C   0  0  0  0  0  0  0  0  0  0  0  0
   -0.8721   -2.5001    0.0000 C   0  0  0  0  0  0  0  0  0  0  0  0
   -0.0089   -3.0051    0.0000 C   0  0  0  0  0  0  0  0  0  0  0  0
    0.8631   -2.5051    0.0000 C   0  0  0  0  0  0  0  0  0  0  0  0
    0.8720   -1.5000    0.0000 C   0  0  0  0  0  0  0  0  0  0  0  0
    1.7261   -3.0102    0.0000 N   0  0  0  0  0  0  0  0  0  0  0  0
    1.7202   -4.0102    0.0000 O   0  0  0  0  0  0  0  0  0  0  0  0
    2.5951   -2.5153    0.0000 O   0  0  0  0  0  0  0  0  0  0  0  0
   -1.7328   -0.0038    0.0000 C   0  0  0  0  0  0  0  0  0  0  0  0
   -2.5995    0.4950    0.0000 O   0  0  0  0  0  0  0  0  0  0  0  0
   -1.7313   -1.0038    0.0000 O   0  0  0  0  0  0  0  0  0  0  0  0
   -2.5966   -1.5050    0.0000 C   0  0  0  0  0  0  0  0  0  0  0  0
   -1.7350    2.0001    0.0000 C   0  0  0  0  0  0  0  0  0  0  0  0
  1  2  1  0
  2  3  1  0
  3  4  1  0
  4  5  2  0
  4  6  1  0
  6 12  1  0
  6  7  2  0
  7  8  1  0
  7  9  1  0
  9 10  1  0
 10 11  2  0
 11 12  1  0
 12 13  1  0
 13 18  1  0
 13 14  2  0
 14 15  1  0
 15 16  2  0
 16 17  1  0
 17 18  2  0
 17 19  1  0
 19 20  2  0
 19 21  1  0
 11 22  1  0
 22 23  2  0
 22 24  1  0
 24 25  1  0
 10 26  1  0
M  CHG  2  19   1  21  -1
M  END
>  <SMILES>  (877) 
CCOC(=O)C1=C(C)NC(C)=C(C(=O)OC)C1c1cccc([N+](=O)[O-])c1

>  <CollectionName>  (877) 
chembl

>  <LOG PLASMA PROTEIN BINDING (RAT) (% unbound)>  (877) 
-0.113509274828

>  <Internal ID>  (877) 


>  <Source>  (877) 
AstraZeneca

$$$$
CHEMBL480558
     RDKit          2D

 18 18  0  0  1  0  0  0  0  0999 V2000
   -4.5279    4.1424    0.0000 C   0  0  0  0  0  0  0  0  0  0  0  0
   -3.5768    3.8338    0.0000 C   0  0  0  0  0  0  0  0  0  0  0  0
   -3.3684    2.8558    0.0000 C   0  0  0  0  0  0  0  0  0  0  0  0
   -4.1113    2.1863    0.0000 C   0  0  0  0  0  0  0  0  0  0  0  0
   -5.0625    2.4949    0.0000 C   0  0  0  0  0  0  0  0  0  0  0  0
   -2.4172    2.5472    0.0000 C   0  0  0  0  0  0  0  0  0  0  0  0
   -1.6744    3.2166    0.0000 C   0  0  0  0  0  0  0  0  0  0  0  0
   -1.8827    4.1947    0.0000 O   0  0  0  0  0  0  0  0  0  0  0  0
   -2.2089    1.5691    0.0000 N   0  0  0  0  0  0  0  0  0  0  0  0
   -1.2577    1.2605    0.0000 S   0  0  0  0  0  0  0  0  0  0  0  0
   -1.5663    0.3093    0.0000 O   0  0  0  0  0  0  0  0  0  0  0  0
   -0.9491    2.2117    0.0000 O   0  0  0  0  0  0  0  0  0  0  0  0
   -0.3065    0.9519    0.0000 C   0  0  0  0  0  0  0  0  0  0  0  0
    0.0000    0.0000    0.0000 C   0  0  0  0  0  0  0  0  0  0  0  0
    1.0015    0.0000    0.0000 C   0  0  0  0  0  0  0  0  0  0  0  0
    1.3133    0.9519    0.0000 C   0  0  0  0  0  0  0  0  0  0  0  0
    2.2648    1.2596    0.0000 Cl  0  0  0  0  0  0  0  0  0  0  0  0
    0.5008    1.5428    0.0000 S   0  0  0  0  0  0  0  0  0  0  0  0
  1  2  1  0
  2  3  1  0
  3  4  1  0
  4  5  1  0
  6  3  1  0
  6  7  1  1
  7  8  1  0
  6  9  1  0
  9 10  1  0
 10 11  2  0
 10 12  2  0
 10 13  1  0
 13 18  1  0
 13 14  2  0
 14 15  1  0
 15 16  2  0
 16 17  1  0
 16 18  1  0
M  END
>  <SMILES>  (878) 
CCC(CC)[C@@H](CO)NS(=O)(=O)c1ccc(Cl)s1

>  <CollectionName>  (878) 
chembl

>  <LOG PLASMA PROTEIN BINDING (RAT) (% unbound)>  (878) 
0.958563883222

>  <Internal ID>  (878) 


>  <Source>  (878) 
AstraZeneca

$$$$
CHEMBL1738840
     RDKit          2D

 19 21  0  0  0  0  0  0  0  0999 V2000
    8.7885    1.3245    0.0000 C   0  0  0  0  0  0  0  0  0  0  0  0
    7.7885    1.3281    0.0000 O   0  0  0  0  0  0  0  0  0  0  0  0
    7.2854    0.4639    0.0000 C   0  0  0  0  0  0  0  0  0  0  0  0
    7.7848   -0.4025    0.0000 C   0  0  0  0  0  0  0  0  0  0  0  0
    7.2791   -1.2712    0.0000 C   0  0  0  0  0  0  0  0  0  0  0  0
    6.2739   -1.2735    0.0000 N   0  0  0  0  0  0  0  0  0  0  0  0
    5.7797   -0.3983    0.0000 C   0  0  0  0  0  0  0  0  0  0  0  0
    4.7797   -0.3917    0.0000 C   0  0  0  0  0  0  0  0  0  0  0  0
    4.2854    0.4775    0.0000 C   0  0  0  0  0  0  0  0  0  0  0  0
    3.2854    0.4841    0.0000 C   0  0  0  0  0  0  0  0  0  0  0  0
    2.6894   -0.3248    0.0000 N   0  0  0  0  0  0  0  0  0  0  0  0
    1.7361   -0.0079    0.0000 C   0  0  0  0  0  0  0  0  0  0  0  0
    0.8635   -0.5043    0.0000 C   0  0  0  0  0  0  0  0  0  0  0  0
    0.0000    0.0000    0.0000 C   0  0  0  0  0  0  0  0  0  0  0  0
    0.0051    1.0055    0.0000 C   0  0  0  0  0  0  0  0  0  0  0  0
    0.8736    1.5067    0.0000 N   0  0  0  0  0  0  0  0  0  0  0  0
    1.7426    0.9968    0.0000 C   0  0  0  0  0  0  0  0  0  0  0  0
    2.7001    1.3007    0.0000 N   0  0  0  0  0  0  0  0  0  0  0  0
    6.2854    0.4704    0.0000 C   0  0  0  0  0  0  0  0  0  0  0  0
  1  2  1  0
  2  3  1  0
  3 19  2  0
  3  4  1  0
  4  5  2  0
  5  6  1  0
  6  7  2  0
  7  8  1  0
  8  9  1  0
  9 10  1  0
 10 18  1  0
 10 11  2  0
 11 12  1  0
 12 17  2  0
 12 13  1  0
 13 14  2  0
 14 15  1  0
 15 16  2  0
 16 17  1  0
 17 18  1  0
  7 19  1  0
M  END
>  <SMILES>  (879) 
COc1ccnc(CCc2nc3cccnc3[nH]2)c1

>  <CollectionName>  (879) 
chembl

>  <LOG PLASMA PROTEIN BINDING (RAT) (% unbound)>  (879) 
1.48967729166

>  <Internal ID>  (879) 


>  <Source>  (879) 
AstraZeneca

$$$$
CHEMBL2312921
     RDKit          2D

 28 30  0  0  1  0  0  0  0  0999 V2000
    5.2050    2.9950    0.0000 C   0  0  0  0  0  0  0  0  0  0  0  0
    4.3404    3.4975    0.0000 C   0  0  0  0  0  0  0  0  0  0  0  0
    3.4729    3.0001    0.0000 C   0  0  0  0  0  0  0  0  0  0  0  0
    3.4700    2.0001    0.0000 N   0  0  0  0  0  0  0  0  0  0  0  0
    4.3345    1.4975    0.0000 C   0  0  0  0  0  0  0  0  0  0  0  0
    4.3286    0.4923    0.0000 C   0  0  0  0  0  0  0  0  0  0  0  0
    5.1932   -0.0103    0.0000 C   0  0  0  0  0  0  0  0  0  0  0  0
    6.0636    0.4821    0.0000 C   0  0  0  0  0  0  0  0  0  0  0  0
    6.0695    1.4873    0.0000 C   0  0  0  0  0  0  0  0  0  0  0  0
    5.2050    2.0001    0.0000 C   0  0  0  0  0  0  0  0  0  0  0  0
    6.9399    1.9796    0.0000 S   0  0  0  0  0  0  0  0  0  0  0  0
    7.4322    1.1092    0.0000 O   0  0  0  0  0  0  0  0  0  0  0  0
    6.4476    2.8500    0.0000 O   0  0  0  0  0  0  0  0  0  0  0  0
    7.8103    2.4719    0.0000 C   0  0  0  0  0  0  0  0  0  0  0  0
    2.6025    1.5026    0.0000 P   0  0  0  0  0  0  0  0  0  0  0  0
    3.0999    0.6351    0.0000 O   0  0  0  0  0  0  0  0  0  0  0  0
    1.7350    1.0052    0.0000 C   0  0  0  0  0  0  0  0  0  0  0  0
    1.7350   -0.0000    0.0000 C   0  0  0  0  0  0  0  0  0  0  0  0
    0.8675   -0.4975    0.0000 C   0  0  0  0  0  0  0  0  0  0  0  0
    0.0000    0.0000    0.0000 C   0  0  0  0  0  0  0  0  0  0  0  0
    0.0000    1.0052    0.0000 C   0  0  0  0  0  0  0  0  0  0  0  0
    0.8675    1.5129    0.0000 C   0  0  0  0  0  0  0  0  0  0  0  0
    1.7320    3.0208    0.0000 C   0  0  0  0  0  0  0  0  0  0  0  0
    0.7268    3.0208    0.0000 C   0  0  0  0  0  0  0  0  0  0  0  0
    0.2293    3.8883    0.0000 C   0  0  0  0  0  0  0  0  0  0  0  0
    0.7268    4.7558    0.0000 C   0  0  0  0  0  0  0  0  0  0  0  0
    1.7320    4.7558    0.0000 C   0  0  0  0  0  0  0  0  0  0  0  0
    2.2397    3.8883    0.0000 C   0  0  0  0  0  0  0  0  0  0  0  0
  1  2  1  0
  2  3  1  0
  3  4  1  0
  4  5  1  0
  5 10  1  0
  5  6  2  0
  6  7  1  0
  7  8  2  0
  8  9  1  0
  9 10  2  0
  9 11  1  0
 11 12  2  0
 11 13  2  0
 11 14  1  0
  4 15  1  0
 15 16  2  0
 15 17  1  0
 17 22  1  0
 17 18  2  0
 18 19  1  0
 19 20  2  0
 20 21  1  0
 21 22  2  0
 15 23  1  0
 23 28  1  0
 23 24  2  0
 24 25  1  0
 25 26  2  0
 26 27  1  0
 27 28  2  0
M  END
>  <SMILES>  (880) 
CCCN(c1cccc(S(C)(=O)=O)c1)P(=O)(c1ccccc1)c1ccccc1

>  <CollectionName>  (880) 
chembl

>  <LOG PLASMA PROTEIN BINDING (RAT) (% unbound)>  (880) 
1.27044590802

>  <Internal ID>  (880) 


>  <Source>  (880) 
AstraZeneca

$$$$
CHEMBL2312933
     RDKit          2D

 24 26  0  0  1  0  0  0  0  0999 V2000
   -0.0007   -1.0012    0.0000 C   0  0  0  0  0  0  0  0  0  0  0  0
    0.8646   -1.5025    0.0000 C   0  0  0  0  0  0  0  0  0  0  0  0
    1.7313   -1.0038    0.0000 C   0  0  0  0  0  0  0  0  0  0  0  0
    1.7328   -0.0038    0.0000 N   0  0  0  0  0  0  0  0  0  0  0  0
    0.8675    0.4975    0.0000 C   0  0  0  0  0  0  0  0  0  0  0  0
    0.0000    0.0000    0.0000 C   0  0  0  0  0  0  0  0  0  0  0  0
   -0.8675    0.4975    0.0000 C   0  0  0  0  0  0  0  0  0  0  0  0
   -0.8675    1.5027    0.0000 C   0  0  0  0  0  0  0  0  0  0  0  0
   -0.0000    2.0104    0.0000 N   0  0  0  0  0  0  0  0  0  0  0  0
    0.8675    1.5027    0.0000 C   0  0  0  0  0  0  0  0  0  0  0  0
    2.5995    0.4950    0.0000 P   0  0  0  0  0  0  0  0  0  0  0  0
    2.1008    1.3617    0.0000 O   0  0  0  0  0  0  0  0  0  0  0  0
    3.4663    0.9937    0.0000 C   0  0  0  0  0  0  0  0  0  0  0  0
    3.4648    1.9989    0.0000 C   0  0  0  0  0  0  0  0  0  0  0  0
    4.3315    2.4977    0.0000 C   0  0  0  0  0  0  0  0  0  0  0  0
    5.1998    2.0015    0.0000 C   0  0  0  0  0  0  0  0  0  0  0  0
    5.2013    0.9963    0.0000 C   0  0  0  0  0  0  0  0  0  0  0  0
    4.3346    0.4873    0.0000 C   0  0  0  0  0  0  0  0  0  0  0  0
    3.4724   -1.0218    0.0000 C   0  0  0  0  0  0  0  0  0  0  0  0
    4.4775   -1.0203    0.0000 C   0  0  0  0  0  0  0  0  0  0  0  0
    4.9764   -1.8871    0.0000 C   0  0  0  0  0  0  0  0  0  0  0  0
    4.4802   -2.7553    0.0000 C   0  0  0  0  0  0  0  0  0  0  0  0
    3.4750   -2.7568    0.0000 C   0  0  0  0  0  0  0  0  0  0  0  0
    2.9660   -1.8901    0.0000 C   0  0  0  0  0  0  0  0  0  0  0  0
  1  2  1  0
  2  3  1  0
  3  4  1  0
  4  5  1  0
  5 10  1  0
  5  6  2  0
  6  7  1  0
  7  8  2  0
  8  9  1  0
  9 10  2  0
  4 11  1  0
 11 12  2  0
 11 13  1  0
 13 18  1  0
 13 14  2  0
 14 15  1  0
 15 16  2  0
 16 17  1  0
 17 18  2  0
 11 19  1  0
 19 24  1  0
 19 20  2  0
 20 21  1  0
 21 22  2  0
 22 23  1  0
 23 24  2  0
M  END
>  <SMILES>  (881) 
CCCN(c1cccnc1)P(=O)(c1ccccc1)c1ccccc1

>  <CollectionName>  (881) 
chembl

>  <LOG PLASMA PROTEIN BINDING (RAT) (% unbound)>  (881) 
1.17897694729

>  <Internal ID>  (881) 


>  <Source>  (881) 
AstraZeneca

$$$$
CHEMBL2316383
     RDKit          2D

 33 36  0  0  1  0  0  0  0  0999 V2000
    4.3411   -4.5108    0.0000 C   0  0  0  0  0  0  0  0  0  0  0  0
    5.2064   -4.0096    0.0000 S   0  0  0  0  0  0  0  0  0  0  0  0
    6.0731   -4.5085    0.0000 O   0  0  0  0  0  0  0  0  0  0  0  0
    5.2051   -3.0096    0.0000 C   0  0  0  0  0  0  0  0  0  0  0  0
    4.3384   -2.5108    0.0000 C   0  0  0  0  0  0  0  0  0  0  0  0
    3.4696   -3.0156    0.0000 C   0  0  0  0  0  0  0  0  0  0  0  0
    2.5986   -2.5127    0.0000 C   0  0  0  0  0  0  0  0  0  0  0  0
    2.5966   -1.5050    0.0000 C   0  0  0  0  0  0  0  0  0  0  0  0
    1.7313   -1.0038    0.0000 C   0  0  0  0  0  0  0  0  0  0  0  0
    0.8646   -1.5025    0.0000 O   0  0  0  0  0  0  0  0  0  0  0  0
    1.7328   -0.0038    0.0000 N   0  0  0  0  0  0  0  0  0  0  0  0
    0.8675    0.4975    0.0000 C   0  0  0  0  0  0  0  0  0  0  0  0
    0.0000    0.0000    0.0000 C   0  0  0  0  0  0  0  0  0  0  0  0
   -0.8675    0.4975    0.0000 C   0  0  0  0  0  0  0  0  0  0  0  0
   -0.8675    1.5027    0.0000 C   0  0  0  0  0  0  0  0  0  0  0  0
   -0.0000    2.0104    0.0000 N   0  0  0  0  0  0  0  0  0  0  0  0
    0.8675    1.5027    0.0000 C   0  0  0  0  0  0  0  0  0  0  0  0
    1.7350    2.0001    0.0000 C   0  0  0  0  0  0  0  0  0  0  0  0
    1.7379    3.0001    0.0000 O   0  0  0  0  0  0  0  0  0  0  0  0
    2.5995    1.4976    0.0000 N   0  0  0  0  0  0  0  0  0  0  0  0
    3.4670    1.9950    0.0000 C   0  0  0  0  0  0  0  0  0  0  0  0
    3.4700    2.9950    0.0000 C   0  0  0  0  0  0  0  0  0  0  0  0
    4.3390    3.4900    0.0000 C   0  0  0  0  0  0  0  0  0  0  0  0
    4.3419    4.4952    0.0000 C   0  0  0  0  0  0  0  0  0  0  0  0
    3.4759    5.0054    0.0000 O   0  0  0  0  0  0  0  0  0  0  0  0
    2.6069    4.5003    0.0000 C   0  0  0  0  0  0  0  0  0  0  0  0
    2.6040    3.4951    0.0000 C   0  0  0  0  0  0  0  0  0  0  0  0
    3.4676   -1.0078    0.0000 C   0  0  0  0  0  0  0  0  0  0  0  0
    3.4605   -0.0023    0.0000 C   0  0  0  0  0  0  0  0  0  0  0  0
    4.3336    0.4965    0.0000 C   0  0  0  0  0  0  0  0  0  0  0  0
    5.2052   -0.0053    0.0000 C   0  0  0  0  0  0  0  0  0  0  0  0
    5.2036   -1.0058    0.0000 C   0  0  0  0  0  0  0  0  0  0  0  0
    4.3385   -1.5108    0.0000 C   0  0  0  0  0  0  0  0  0  0  0  0
  1  2  1  0
  2  3  1  0
  2  4  1  0
  4  5  1  0
  5 33  2  0
  5  6  1  0
  6  7  2  0
  7  8  1  0
  8  9  1  0
  9 10  2  0
  9 11  1  0
 11 12  1  0
 12 17  1  0
 12 13  2  0
 13 14  1  0
 14 15  2  0
 15 16  1  0
 16 17  2  0
 17 18  1  0
 18 19  2  0
 18 20  1  0
 20 21  1  0
 21 22  1  0
 22 27  1  0
 22 23  1  0
 23 24  1  0
 24 25  1  0
 25 26  1  0
 26 27  1  0
  8 28  2  0
 28 33  1  0
 28 29  1  0
 29 30  2  0
 30 31  1  0
 31 32  2  0
 32 33  1  0
M  CHG  2   2   1   3  -1
M  END
>  <SMILES>  (882) 
C[S+]([O-])Cc1ccc(C(=O)Nc2cccnc2C(=O)NCC2CCOCC2)c2ccccc12

>  <CollectionName>  (882) 
chembl

>  <LOG PLASMA PROTEIN BINDING (RAT) (% unbound)>  (882) 
1.18752072084

>  <Internal ID>  (882) 


>  <Source>  (882) 
AstraZeneca

$$$$
CHEMBL2324355
     RDKit          2D

 27 29  0  0  0  0  0  0  0  0999 V2000
   -2.8349    3.6620    0.0000 C   0  0  0  0  0  0  0  0  0  0  0  0
   -3.5760    2.9906    0.0000 C   0  0  0  0  0  0  0  0  0  0  0  0
   -4.5562    3.1970    0.0000 N   0  0  0  0  0  0  0  0  0  0  0  0
   -5.0552    2.3250    0.0000 O   0  0  0  0  0  0  0  0  0  0  0  0
   -4.3799    1.5868    0.0000 C   0  0  0  0  0  0  0  0  0  0  0  0
   -3.4670    1.9950    0.0000 C   0  0  0  0  0  0  0  0  0  0  0  0
   -2.5995    1.4976    0.0000 C   0  0  0  0  0  0  0  0  0  0  0  0
   -2.5966    0.4976    0.0000 O   0  0  0  0  0  0  0  0  0  0  0  0
   -1.7350    2.0001    0.0000 N   0  0  0  0  0  0  0  0  0  0  0  0
   -0.8675    1.5027    0.0000 C   0  0  0  0  0  0  0  0  0  0  0  0
   -0.8675    0.4975    0.0000 C   0  0  0  0  0  0  0  0  0  0  0  0
    0.0000    0.0000    0.0000 C   0  0  0  0  0  0  0  0  0  0  0  0
    0.8675    0.4975    0.0000 C   0  0  0  0  0  0  0  0  0  0  0  0
    0.8675    1.5027    0.0000 C   0  0  0  0  0  0  0  0  0  0  0  0
    1.7350    2.0001    0.0000 N   0  0  0  0  0  0  0  0  0  0  0  0
   -0.0000    2.0104    0.0000 N   0  0  0  0  0  0  0  0  0  0  0  0
    1.7328   -0.0038    0.0000 C   0  0  0  0  0  0  0  0  0  0  0  0
    2.6003    0.4937    0.0000 C   0  0  0  0  0  0  0  0  0  0  0  0
    3.4678   -0.0038    0.0000 C   0  0  0  0  0  0  0  0  0  0  0  0
    3.4678   -1.0090    0.0000 C   0  0  0  0  0  0  0  0  0  0  0  0
    2.6003   -1.5167    0.0000 C   0  0  0  0  0  0  0  0  0  0  0  0
    1.7328   -1.0090    0.0000 C   0  0  0  0  0  0  0  0  0  0  0  0
    0.8653   -1.5064    0.0000 O   0  0  0  0  0  0  0  0  0  0  0  0
    0.8624   -2.5064    0.0000 C   0  0  0  0  0  0  0  0  0  0  0  0
    1.8623   -2.5093    0.0000 F   0  0  0  0  0  0  0  0  0  0  0  0
   -0.1376   -2.5034    0.0000 F   0  0  0  0  0  0  0  0  0  0  0  0
    0.8594   -3.5064    0.0000 F   0  0  0  0  0  0  0  0  0  0  0  0
  1  2  1  0
  2  6  1  0
  2  3  2  0
  3  4  1  0
  4  5  1  0
  5  6  2  0
  6  7  1  0
  7  8  2  0
  7  9  1  0
  9 10  1  0
 10 16  1  0
 10 11  2  0
 11 12  1  0
 12 13  2  0
 13 14  1  0
 14 15  1  0
 14 16  2  0
 13 17  1  0
 17 22  1  0
 17 18  2  0
 18 19  1  0
 19 20  2  0
 20 21  1  0
 21 22  2  0
 22 23  1  0
 23 24  1  0
 24 25  1  0
 24 26  1  0
 24 27  1  0
M  END
>  <SMILES>  (883) 
Cc1nocc1C(=O)Nc1ccc(-c2ccccc2OC(F)(F)F)c(N)n1

>  <CollectionName>  (883) 
chembl

>  <LOG PLASMA PROTEIN BINDING (RAT) (% unbound)>  (883) 
0.563481085394

>  <Internal ID>  (883) 


>  <Source>  (883) 
AstraZeneca

$$$$
CHEMBL2325601
     RDKit          2D

 34 37  0  0  0  0  0  0  0  0999 V2000
   -1.2577    1.2605    0.0000 N   0  0  0  0  0  0  0  0  0  0  0  0
   -0.3065    0.9519    0.0000 C   0  0  0  0  0  0  0  0  0  0  0  0
    0.5008    1.5428    0.0000 N   0  0  0  0  0  0  0  0  0  0  0  0
    1.3133    0.9519    0.0000 N   0  0  0  0  0  0  0  0  0  0  0  0
    1.0015    0.0000    0.0000 C   0  0  0  0  0  0  0  0  0  0  0  0
    0.0000    0.0000    0.0000 C   0  0  0  0  0  0  0  0  0  0  0  0
   -0.5889   -0.8082    0.0000 C   0  0  0  0  0  0  0  0  0  0  0  0
   -1.5880   -0.6989    0.0000 C   0  0  0  0  0  0  0  0  0  0  0  0
   -2.1727   -1.5165    0.0000 C   0  0  0  0  0  0  0  0  0  0  0  0
   -1.7624   -2.4341    0.0000 C   0  0  0  0  0  0  0  0  0  0  0  0
   -0.7674   -2.5342    0.0000 C   0  0  0  0  0  0  0  0  0  0  0  0
   -0.1785   -1.7259    0.0000 C   0  0  0  0  0  0  0  0  0  0  0  0
    0.8160   -1.8302    0.0000 O   0  0  0  0  0  0  0  0  0  0  0  0
    1.2229   -2.7437    0.0000 C   0  0  0  0  0  0  0  0  0  0  0  0
    2.2173   -2.8495    0.0000 C   0  0  0  0  0  0  0  0  0  0  0  0
    2.6282   -3.7612    0.0000 C   0  0  0  0  0  0  0  0  0  0  0  0
    3.6231   -3.8627    0.0000 F   0  0  0  0  0  0  0  0  0  0  0  0
    2.0387   -4.5754    0.0000 C   0  0  0  0  0  0  0  0  0  0  0  0
    1.0383   -4.4779    0.0000 C   0  0  0  0  0  0  0  0  0  0  0  0
    0.6334   -3.5579    0.0000 C   0  0  0  0  0  0  0  0  0  0  0  0
   -0.3610   -3.4520    0.0000 Cl  0  0  0  0  0  0  0  0  0  0  0  0
    2.4496   -5.4871    0.0000 S   0  0  0  0  0  0  0  0  0  0  0  0
    1.5379   -5.8980    0.0000 O   0  0  0  0  0  0  0  0  0  0  0  0
    3.3613   -5.0762    0.0000 O   0  0  0  0  0  0  0  0  0  0  0  0
    2.8605   -6.3988    0.0000 N   0  0  0  0  0  0  0  0  0  0  0  0
    3.8555   -6.4987    0.0000 C   0  0  0  0  0  0  0  0  0  0  0  0
    4.3606   -7.3618    0.0000 C   0  0  0  0  0  0  0  0  0  0  0  0
    5.3393   -7.1541    0.0000 S   0  0  0  0  0  0  0  0  0  0  0  0
    5.4406   -6.1546    0.0000 C   0  0  0  0  0  0  0  0  0  0  0  0
    4.5232   -5.7523    0.0000 N   0  0  0  0  0  0  0  0  0  0  0  0
   -3.1677   -1.4165    0.0000 C   0  0  0  0  0  0  0  0  0  0  0  0
   -3.2677   -2.4115    0.0000 F   0  0  0  0  0  0  0  0  0  0  0  0
   -3.0677   -0.4215    0.0000 F   0  0  0  0  0  0  0  0  0  0  0  0
   -4.1627   -1.3165    0.0000 F   0  0  0  0  0  0  0  0  0  0  0  0
  1  2  1  0
  2  6  1  0
  2  3  2  0
  3  4  1  0
  4  5  1  0
  5  6  2  0
  6  7  1  0
  7 12  1  0
  7  8  2  0
  8  9  1  0
  9 10  2  0
 10 11  1  0
 11 12  2  0
 12 13  1  0
 13 14  1  0
 14 20  1  0
 14 15  2  0
 15 16  1  0
 16 17  1  0
 16 18  2  0
 18 19  1  0
 19 20  2  0
 20 21  1  0
 18 22  1  0
 22 23  2  0
 22 24  2  0
 22 25  1  0
 25 26  1  0
 26 30  1  0
 26 27  2  0
 27 28  1  0
 28 29  1  0
 29 30  2  0
  9 31  1  0
 31 32  1  0
 31 33  1  0
 31 34  1  0
M  END
>  <SMILES>  (884) 
Nc1n[nH]cc1-c1cc(C(F)(F)F)ccc1Oc1cc(F)c(S(=O)(=O)Nc2cscn2)cc1Cl

>  <CollectionName>  (884) 
chembl

>  <LOG PLASMA PROTEIN BINDING (RAT) (% unbound)>  (884) 
-0.142667503569

>  <Internal ID>  (884) 


>  <Source>  (884) 
AstraZeneca

$$$$
CHEMBL2326623
     RDKit          2D

 38 42  0  0  1  0  0  0  0  0999 V2000
    0.0012   -1.9973    0.0000 C   0  0  0  0  0  0  0  0  0  0  0  0
    0.8675   -1.4978    0.0000 O   0  0  0  0  0  0  0  0  0  0  0  0
    0.8680   -0.4978    0.0000 C   0  0  0  0  0  0  0  0  0  0  0  0
    0.0000    0.0000    0.0000 C   0  0  0  0  0  0  0  0  0  0  0  0
    0.0000    1.0058    0.0000 C   0  0  0  0  0  0  0  0  0  0  0  0
    0.8680    1.5138    0.0000 C   0  0  0  0  0  0  0  0  0  0  0  0
    1.7360    1.0058    0.0000 C   0  0  0  0  0  0  0  0  0  0  0  0
    1.7360   -0.0012    0.0000 C   0  0  0  0  0  0  0  0  0  0  0  0
    2.6938   -0.3126    0.0000 C   0  0  0  0  0  0  0  0  0  0  0  0
    3.0027   -1.2637    0.0000 N   0  0  0  0  0  0  0  0  0  0  0  0
    3.9808   -1.4717    0.0000 S   0  0  0  0  0  0  0  0  0  0  0  0
    3.7728   -2.4499    0.0000 O   0  0  0  0  0  0  0  0  0  0  0  0
    4.1889   -0.4936    0.0000 O   0  0  0  0  0  0  0  0  0  0  0  0
    4.9589   -1.6798    0.0000 C   0  0  0  0  0  0  0  0  0  0  0  0
    5.3627   -2.5946    0.0000 C   0  0  0  0  0  0  0  0  0  0  0  0
    6.3588   -2.4905    0.0000 C   0  0  0  0  0  0  0  0  0  0  0  0
    6.5700   -1.5114    0.0000 C   0  0  0  0  0  0  0  0  0  0  0  0
    7.4843   -1.1064    0.0000 Cl  0  0  0  0  0  0  0  0  0  0  0  0
    5.7004   -1.0081    0.0000 S   0  0  0  0  0  0  0  0  0  0  0  0
    3.2858    0.5021    0.0000 N   0  0  0  0  0  0  0  0  0  0  0  0
    2.6939    1.3169    0.0000 N   0  0  0  0  0  0  0  0  0  0  0  0
    3.0030    2.2679    0.0000 C   0  0  0  0  0  0  0  0  0  0  0  0
    3.9812    2.4757    0.0000 C   0  0  0  0  0  0  0  0  0  0  0  0
    4.2891    3.4326    0.0000 C   0  0  0  0  0  0  0  0  0  0  0  0
    5.2673    3.6405    0.0000 C   0  0  0  0  0  0  0  0  0  0  0  0
    5.9407    2.9012    0.0000 C   0  0  0  0  0  0  0  0  0  0  0  0
    5.6328    1.9443    0.0000 C   0  0  0  0  0  0  0  0  0  0  0  0
    6.3062    1.2050    0.0000 C   0  0  0  0  0  0  0  0  0  0  0  0
    7.2831    1.4186    0.0000 N   0  0  0  0  0  0  0  0  0  0  0  0
    7.5866    2.3715    0.0000 C   0  0  0  0  0  0  0  0  0  0  0  0
    6.9132    3.1107    0.0000 O   0  0  0  0  0  0  0  0  0  0  0  0
    8.5636    2.5850    0.0000 C   0  0  0  0  0  0  0  0  0  0  0  0
    8.8700    3.5424    0.0000 C   0  0  0  0  0  0  0  0  0  0  0  0
    9.8510    3.7614    0.0000 O   0  0  0  0  0  0  0  0  0  0  0  0
   10.5224    3.0134    0.0000 C   0  0  0  0  0  0  0  0  0  0  0  0
   10.2160    2.0561    0.0000 C   0  0  0  0  0  0  0  0  0  0  0  0
    9.2381    1.8467    0.0000 N   0  0  0  0  0  0  0  0  0  0  0  0
    4.6515    1.7267    0.0000 C   0  0  0  0  0  0  0  0  0  0  0  0
  1  2  1  0
  2  3  1  0
  3  8  2  0
  3  4  1  0
  4  5  2  0
  5  6  1  0
  6  7  2  0
  7 21  1  0
  7  8  1  0
  8  9  1  0
  9 10  1  0
 10 11  1  0
 11 12  2  0
 11 13  2  0
 11 14  1  0
 14 19  1  0
 14 15  2  0
 15 16  1  0
 16 17  2  0
 17 18  1  0
 17 19  1  0
  9 20  2  0
 20 21  1  0
 21 22  1  0
 22 23  1  0
 23 38  1  0
 23 24  2  0
 24 25  1  0
 25 26  2  0
 26 27  1  0
 27 28  1  0
 28 29  1  0
 29 30  1  0
 30 31  2  0
 32 30  1  1
 32 37  1  0
 32 33  1  0
 33 34  1  0
 34 35  1  0
 35 36  1  0
 36 37  1  0
 27 38  2  0
M  END
>  <SMILES>  (885) 
COc1cccc2c1c(NS(=O)(=O)c1ccc(Cl)s1)nn2Cc1cccc(CNC(=O)[C@H]2COCCN2)c1

>  <CollectionName>  (885) 
chembl

>  <LOG PLASMA PROTEIN BINDING (RAT) (% unbound)>  (885) 
-0.283996656365

>  <Internal ID>  (885) 


>  <Source>  (885) 
AstraZeneca

$$$$
